
-------------------------------------------------------------------------
|    ___ _   _ ___                                                      |
|   / __| | | |_  )   Release 8.1.0 "Harrier"                           |
|   \__ \ |_| |/ /                                                      |
|   |___/\___//___|   Suite (Computational Fluid Dynamics Code)         |
|                                                                       |
-------------------------------------------------------------------------
| SU2 Project Website: https://su2code.github.io                        |
|                                                                       |
| The SU2 Project is maintained by the SU2 Foundation                   |
| (http://su2foundation.org)                                            |
-------------------------------------------------------------------------
| Copyright 2012-2024, SU2 Contributors                                 |
|                                                                       |
| SU2 is free software; you can redistribute it and/or                  |
| modify it under the terms of the GNU Lesser General Public            |
| License as published by the Free Software Foundation; either          |
| version 2.1 of the License, or (at your option) any later version.    |
|                                                                       |
| SU2 is distributed in the hope that it will be useful,                |
| but WITHOUT ANY WARRANTY; without even the implied warranty of        |
| MERCHANTABILITY or FITNESS FOR A PARTICULAR PURPOSE. See the GNU      |
| Lesser General Public License for more details.                       |
|                                                                       |
| You should have received a copy of the GNU Lesser General Public      |
| License along with SU2. If not, see <http://www.gnu.org/licenses/>.   |
-------------------------------------------------------------------------

Parsing config file for zone 0

----------------- Physical Case Definition ( Zone 0 ) -------------------
Incompressible RANS equations.
Turbulence model: Spalart-Allmaras-noft2
Hybrid RANS/LES: No Hybrid RANS/LES
No restart solution, use the values at infinity (freestream).
Non-Dimensional simulation using intialization values.
The reference area is 1 m^2.
The semi-span will be computed using the max y(3D) value.
The reference length is 1 m.
Reference origin for moment evaluation is (0, 0, 0).
Surface(s) where the force coefficients are evaluated: airfoil.

Surface(s) plotted in the output file: airfoil.
Input mesh file name: mesh/structured_alexky.su2

--------------- Space Numerical Integration ( Zone 0 ) ------------------
Flux difference splitting (FDS) upwind scheme for the flow inviscid terms.
Second order integration in space, with slope limiter.
No slope-limiting method. 
Average of gradients with correction (viscous flow terms).
Average of gradients with correction (viscous turbulence terms).
Gradient for upwind reconstruction: Green-Gauss.
Gradient for viscous and source terms: Green-Gauss.

--------------- Time Numerical Integration  ( Zone 0 ) ------------------
Local time stepping (steady state simulation).
Euler implicit method for the flow equations.
FGMRES is used for solving the linear system.
Using a ILU(0) preconditioning.
Convergence criteria of the linear solver: 1e-10.
Max number of linear iterations: 10.
No CFL adaptation.
Courant-Friedrichs-Lewy number:       25
Euler implicit time integration for the turbulence model.

------------------ Convergence Criteria  ( Zone 0 ) ---------------------
Maximum number of solver subiterations: 100000.
Begin convergence monitoring at iteration 10.
Residual minimum value: 1e-9.
Cauchy series min. value: 1e-06.
Number of Cauchy elements: 100.
Begin windowed time average at iteration 0.

-------------------- Output Information ( Zone 0 ) ----------------------
File writing frequency: 
+------------------------------------+
|                     File| Frequency|
+------------------------------------+
|                  RESTART|       250|
|                 PARAVIEW|       250|
|         SURFACE_PARAVIEW|       250|
+------------------------------------+
Writing the convergence history file every 1 inner iterations.
Writing the screen convergence history every 1 inner iterations.
The tabular file format is CSV (.csv).
Convergence history file name: history.
Forces breakdown file name: forces_breakdown.dat.
Surface file name: surface_flow.
Volume file name: flow.
Restart file name: restart_flow.dat.

------------- Config File Boundary Information ( Zone 0 ) ---------------
+-----------------------------------------------------------------------+
|                        Marker Type|                        Marker Name|
+-----------------------------------------------------------------------+
|                          Far-field|                           farfield|
+-----------------------------------------------------------------------+
|                     Heat flux wall|                            airfoil|
+-----------------------------------------------------------------------+

-------------------- Output Preprocessing ( Zone 0 ) --------------------

WARNING: SURFACE_PRESSURE_DROP can only be computed for at least 2 surfaces (outlet, inlet, ...)

Screen output fields: INNER_ITER, WALL_TIME, RMS_PRESSURE, RMS_NU_TILDE, LIFT, DRAG
History output group(s): ITER, RMS_RES
Convergence field(s): RMS_PRESSURE
Warning: No (valid) fields chosen for time convergence monitoring. Time convergence monitoring inactive.
Volume output fields: COORDINATES, SOLUTION, PRIMITIVE

------------------- Geometry Preprocessing ( Zone 0 ) -------------------
Two dimensional problem.
50708 grid points.
50202 volume elements.
2 surface markers.
307 boundary elements in index 0 (Marker = airfoil).
705 boundary elements in index 1 (Marker = farfield).
50202 quadrilaterals.
Setting point connectivity.
Renumbering points (Reverse Cuthill McKee Ordering).
Recomputing point connectivity.
Setting element connectivity.
Checking the numerical grid orientation.
All volume elements are correctly oriented.
All surface elements are correctly oriented.
Identifying edges and vertices.
Setting the control volume structure.
Area of the computational grid: 128.458.
Searching for the closest normal neighbors to the surfaces.
Storing a mapping from global to local point index.
Compute the surface curvature.
Max K: 9322.35. Mean K: 21.1256. Standard deviation K: 404.685.
Checking for periodicity.
Computing mesh quality statistics for the dual control volumes.
+--------------------------------------------------------------+
|           Mesh Quality Metric|        Minimum|        Maximum|
+--------------------------------------------------------------+
|    Orthogonality Angle (deg.)|        38.6041|             90|
|     CV Face Area Aspect Ratio|        1.00529|        403.995|
|           CV Sub-Volume Ratio|              1|        407.434|
+--------------------------------------------------------------+
Finding max control volume width.
Wetted area = 2.04734 m.
Area projection in the x-plane = 0.147647 m, y-plane = 0.991823 m.
Max. coordinate in the x-direction = 0.99183 m, y-direction = 0.106501 m.
Min. coordinate in the x-direction = 3.58501e-06 m, y-direction = -0.0406126 m.
Computing wall distances.

-------------------- Solver Preprocessing ( Zone 0 ) --------------------
Incompressible flow: rho_ref, vel_ref, and temp_ref
are based on the initial values, p_ref = rho_ref*vel_ref^2.
Force coefficients computed using initial values.
The reference area for force coeffs. is 1 m^2.
The reference length for force coeffs. is 1 m.
The pressure is decomposed into thermodynamic and dynamic components.
The initial value of the dynamic pressure is 0.
Mach number: 0.0903725, computed using the Bulk modulus.
For external flows, the initial state is imposed at the far-field.
Angle of attack (deg): 10, computed using the initial velocity.
Side slip angle (deg): 0, computed using the initial velocity.
Reynolds number per meter: 2.08624e+06, computed using initial values.
Reynolds number is a byproduct of inputs only (not used internally).
SI units only. The grid should be dimensional (meters).
No energy equation.

-- Models:
+------------------------------------------------------------------------------+
|          Viscosity Model|        Conductivity Model|              Fluid Model|
+------------------------------------------------------------------------------+
|       CONSTANT_VISCOSITY|          CONSTANT_PRANDTL|         CONSTANT_DENSITY|
+------------------------------------------------------------------------------+
-- Fluid properties:
+------------------------------------------------------------------------------+
|                  Name|    Dim. value|    Ref. value|      Unit|Non-dim. value|
+------------------------------------------------------------------------------+
|             Viscosity|     1.853e-05|        38.658|   N.s/m^2|   4.79332e-07|
+------------------------------------------------------------------------------+
|        Prandtl (Lam.)|             -|             -|         -|          0.72|
|       Prandtl (Turb.)|             -|             -|         -|           0.9|
+------------------------------------------------------------------------------+
|          Bulk Modulus|        142000|             1|        Pa|        142000|
+------------------------------------------------------------------------------+
-- Initial and free-stream conditions:
+------------------------------------------------------------------------------+
|                  Name|    Dim. value|    Ref. value|      Unit|Non-dim. value|
+------------------------------------------------------------------------------+
|      Dynamic Pressure|             0|       1159.74|        Pa|             0|
|        Total Pressure|        579.87|       1159.74|        Pa|           0.5|
|               Density|        1.2886|        1.2886|    kg/m^3|             1|
|            Velocity-X|       29.5442|            30|       m/s|      0.984808|
|            Velocity-Y|       5.20945|            30|       m/s|      0.173648|
|    Velocity Magnitude|            30|            30|       m/s|             1|
+------------------------------------------------------------------------------+
|             Viscosity|     1.853e-05|        38.658|   N.s/m^2|   4.79332e-07|
|          Conductivity|             -|       120.743|   W/m^2.K|             -|
|     Turb. Kin. Energy|         3.375|           900|   m^2/s^2|       0.00375|
|     Spec. Dissipation|       23470.2|            30|       1/s|       782.339|
+------------------------------------------------------------------------------+
|           Mach Number|             -|             -|         -|     0.0903725|
|       Reynolds Number|             -|             -|         -|   2.08624e+06|
+------------------------------------------------------------------------------+
Initialize Jacobian structure (Navier-Stokes). MG level: 0.
Initialize Jacobian structure (SA model).

------------------- Numerics Preprocessing ( Zone 0 ) -------------------

----------------- Integration Preprocessing ( Zone 0 ) ------------------

------------------- Iteration Preprocessing ( Zone 0 ) ------------------
Euler/Navier-Stokes/RANS fluid iteration.

------------------------------ Begin Solver -----------------------------

Simulation Run using the Single-zone Driver
+-----------------------------------------------------------------------------+
|  Inner_Iter|   Time(sec)|      rms[P]|     rms[nu]|          CL|          CD|
+-----------------------------------------------------------------------------+
|           0|  2.8400e-01|   -3.711545|  -10.089284|    2.096308|    1.255166|
|           1|  2.7150e-01|   -4.072566|  -10.191435|    2.086205|    1.127091|
|           2|  2.7667e-01|   -4.200412|  -10.305269|    1.631853|    0.843996|
|           3|  2.7250e-01|   -4.352402|  -10.340220|    1.384298|    0.701563|
|           4|  2.6980e-01|   -4.548720|  -10.355323|    1.342560|    0.667002|
|           5|  2.7283e-01|   -4.591340|  -10.391101|    1.361341|    0.661706|
|           6|  2.7557e-01|   -4.599364|  -10.419410|    1.376569|    0.652626|
|           7|  2.7463e-01|   -4.604014|  -10.444867|    1.385282|    0.637046|
|           8|  2.7200e-01|   -4.611449|  -10.461966|    1.394825|    0.618126|
|           9|  2.7410e-01|   -4.620645|  -10.468279|    1.406540|    0.596922|
|          10|  2.7436e-01|   -4.629149|  -10.461788|    1.418591|    0.573141|
|          11|  2.7292e-01|   -4.635268|  -10.454163|    1.429257|    0.546593|
|          12|  2.7246e-01|   -4.638872|  -10.446662|    1.437316|    0.517423|
|          13|  2.7314e-01|   -4.640655|  -10.438487|    1.441679|    0.485940|
|          14|  2.7267e-01|   -4.641247|  -10.431582|    1.441335|    0.452500|
|          15|  2.7325e-01|   -4.641066|  -10.424035|    1.435404|    0.417453|
|          16|  2.7429e-01|   -4.640546|  -10.415188|    1.423108|    0.381109|
|          17|  2.7461e-01|   -4.640162|  -10.404658|    1.403722|    0.343685|
|          18|  2.7421e-01|   -4.640244|  -10.392958|    1.376556|    0.305270|
|          19|  2.7780e-01|   -4.640862|  -10.380983|    1.341007|    0.265890|
|          20|  2.7833e-01|   -4.641834|  -10.368877|    1.296622|    0.225553|
|          21|  2.7850e-01|   -4.642865|  -10.356324|    1.243163|    0.184302|
|          22|  2.7761e-01|   -4.643717|  -10.343204|    1.180700|    0.142303|
|          23|  2.7787e-01|   -4.644290|  -10.329541|    1.109638|    0.099870|
|          24|  2.7756e-01|   -4.644641|  -10.315732|    1.030729|    0.057494|
|          25|  2.7750e-01|   -4.644936|  -10.301820|    0.944987|    0.015808|
|          26|  2.7689e-01|   -4.645393|  -10.288284|    0.853679|   -0.024408|
|          27|  2.7657e-01|   -4.646151|  -10.275806|    0.758255|   -0.062299|
|          28|  2.7614e-01|   -4.647136|  -10.264950|    0.660264|   -0.097005|
|          29|  2.7560e-01|   -4.648013|  -10.256195|    0.561284|   -0.127739|
|          30|  2.7574e-01|   -4.648399|  -10.249693|    0.463051|   -0.153788|
|          31|  2.7553e-01|   -4.647781|  -10.245648|    0.367179|   -0.174636|
|          32|  2.7494e-01|   -4.646005|  -10.244042|    0.275363|   -0.189932|
|          33|  2.7503e-01|   -4.643153|  -10.244508|    0.189113|   -0.199563|
|          34|  2.7491e-01|   -4.639934|  -10.246089|    0.109974|   -0.203587|
|          35|  2.7458e-01|   -4.637194|  -10.248453|    0.039373|   -0.202240|
|          36|  2.7446e-01|   -4.635716|  -10.250766|   -0.021495|   -0.195899|
|          37|  2.7403e-01|   -4.636245|  -10.252527|   -0.071523|   -0.185049|
|          38|  2.7415e-01|   -4.638989|  -10.253371|   -0.109813|   -0.170250|
|          39|  2.7407e-01|   -4.643695|  -10.253211|   -0.135772|   -0.152077|
|          40|  2.7395e-01|   -4.649769|  -10.252066|   -0.148960|   -0.131135|
|          41|  2.7362e-01|   -4.656150|  -10.250155|   -0.149176|   -0.108002|
|          42|  2.7356e-01|   -4.661735|  -10.247557|   -0.136412|   -0.083193|
|          43|  2.7375e-01|   -4.665602|  -10.244174|   -0.110857|   -0.057218|
|          44|  2.7367e-01|   -4.667377|  -10.240075|   -0.072851|   -0.030477|
|          45|  2.7365e-01|   -4.667328|  -10.234947|   -0.022995|   -0.003401|
|          46|  2.7360e-01|   -4.666289|  -10.228577|    0.038012|    0.023676|
|          47|  2.7350e-01|   -4.665377|  -10.221086|    0.109230|    0.050407|
|          48|  2.7335e-01|   -4.665600|  -10.212731|    0.189507|    0.076453|
|          49|  2.7492e-01|   -4.667715|  -10.203976|    0.277751|    0.101575|
|          50|  2.7510e-01|   -4.672089|  -10.195385|    0.372531|    0.125479|
|          51|  2.7525e-01|   -4.678594|  -10.187571|    0.472321|    0.147901|
|          52|  2.7536e-01|   -4.686668|  -10.180829|    0.575598|    0.168626|
|          53|  2.7537e-01|   -4.695462|  -10.175547|    0.680883|    0.187483|
|          54|  2.7536e-01|   -4.704269|  -10.171210|    0.786527|    0.204301|
|          55|  2.7545e-01|   -4.712376|  -10.167424|    0.890907|    0.218948|
|          56|  2.7537e-01|   -4.719366|  -10.163554|    0.992458|    0.231327|
|          57|  2.7512e-01|   -4.725250|  -10.158845|    1.089710|    0.241386|
|          58|  2.7525e-01|   -4.730501|  -10.152830|    1.181342|    0.249108|
|          59|  2.7520e-01|   -4.736016|  -10.145337|    1.266189|    0.254511|
|          60|  2.7503e-01|   -4.742880|  -10.136360|    1.343133|    0.257634|
|          61|  2.7498e-01|   -4.751897|  -10.126196|    1.411206|    0.258544|
|          62|  2.7471e-01|   -4.763625|  -10.115257|    1.469608|    0.257328|
|          63|  2.7463e-01|   -4.778307|  -10.103642|    1.517708|    0.254099|
|          64|  2.7471e-01|   -4.795863|  -10.091957|    1.555062|    0.248986|
|          65|  2.7465e-01|   -4.815891|  -10.080556|    1.581417|    0.242135|
|          66|  2.7446e-01|   -4.837757|  -10.069768|    1.596736|    0.233698|
|          67|  2.7412e-01|   -4.860492|  -10.059221|    1.601136|    0.223844|
|          68|  2.7426e-01|   -4.883051|  -10.049086|    1.594914|    0.212756|
|          69|  2.7410e-01|   -4.904483|  -10.039703|    1.578548|    0.200628|
|          70|  2.7380e-01|   -4.924030|  -10.031183|    1.552686|    0.187656|
|          71|  2.7367e-01|   -4.941203|  -10.023205|    1.518124|    0.174041|
|          72|  2.7373e-01|   -4.955417|  -10.015584|    1.475684|    0.159940|
|          73|  2.7380e-01|   -4.966902|  -10.008767|    1.426363|    0.145544|
|          74|  2.7372e-01|   -4.975293|  -10.002803|    1.371059|    0.130980|
|          75|  2.7383e-01|   -4.981484|   -9.997619|    1.310885|    0.116420|
|          76|  2.7383e-01|   -4.985974|   -9.993134|    1.246998|    0.102026|
|          77|  2.7358e-01|   -4.988943|   -9.988599|    1.180528|    0.087941|
|          78|  2.7396e-01|   -4.990823|   -9.984507|    1.112642|    0.074305|
|          79|  2.7431e-01|   -4.991974|   -9.980677|    1.044484|    0.061250|
|          80|  2.7489e-01|   -4.992761|   -9.976960|    0.977120|    0.048890|
|          81|  2.7480e-01|   -4.993836|   -9.973221|    0.911616|    0.037338|
|          82|  2.7477e-01|   -4.995731|   -9.969255|    0.848940|    0.026694|
|          83|  2.7452e-01|   -4.999037|   -9.964899|    0.789990|    0.017051|
|          84|  2.7454e-01|   -5.004279|   -9.960136|    0.735605|    0.008495|
|          85|  2.7450e-01|   -5.011851|   -9.954781|    0.686484|    0.001097|
|          86|  2.7439e-01|   -5.022059|   -9.948819|    0.643266|   -0.005077|
|          87|  2.7431e-01|   -5.035026|   -9.942289|    0.606477|   -0.009972|
|          88|  2.7408e-01|   -5.050784|   -9.935222|    0.576511|   -0.013548|
|          89|  2.7392e-01|   -5.069132|   -9.927761|    0.553674|   -0.015775|
|          90|  2.7370e-01|   -5.089693|   -9.920108|    0.538145|   -0.016639|
|          91|  2.7366e-01|   -5.111929|   -9.912336|    0.529979|   -0.016142|
|          92|  2.7345e-01|   -5.134945|   -9.904540|    0.529130|   -0.014301|
|          93|  2.7324e-01|   -5.157563|   -9.896776|    0.535437|   -0.011152|
|          94|  2.7321e-01|   -5.178504|   -9.889164|    0.548642|   -0.006744|
|          95|  2.7302e-01|   -5.196288|   -9.881602|    0.568389|   -0.001147|
|          96|  2.7284e-01|   -5.209541|   -9.874328|    0.594233|    0.005553|
|          97|  2.7279e-01|   -5.217411|   -9.867284|    0.625653|    0.013255|
|          98|  2.7279e-01|   -5.219830|   -9.860509|    0.662069|    0.021844|
|          99|  2.7275e-01|   -5.217409|   -9.854019|    0.702833|    0.031190|
|         100|  2.7270e-01|   -5.211257|   -9.847765|    0.747255|    0.041150|
|         101|  2.7267e-01|   -5.202787|   -9.841497|    0.794616|    0.051575|
|         102|  2.7254e-01|   -5.193409|   -9.835247|    0.844184|    0.062309|
|         103|  2.7248e-01|   -5.184330|   -9.828969|    0.895227|    0.073194|
|         104|  2.7234e-01|   -5.176463|   -9.822492|    0.947008|    0.084067|
|         105|  2.7243e-01|   -5.170486|   -9.815732|    0.998844|    0.094775|
|         106|  2.7238e-01|   -5.166867|   -9.808651|    1.050086|    0.105171|
|         107|  2.7231e-01|   -5.165873|   -9.801151|    1.100087|    0.115105|
|         108|  2.7227e-01|   -5.167650|   -9.793212|    1.148234|    0.124434|
|         109|  2.7297e-01|   -5.172297|   -9.784763|    1.193961|    0.133024|
|         110|  2.7291e-01|   -5.179861|   -9.775871|    1.236752|    0.140753|
|         111|  2.7301e-01|   -5.190334|   -9.766634|    1.276145|    0.147512|
|         112|  2.7296e-01|   -5.203650|   -9.757178|    1.311740|    0.153205|
|         113|  2.7305e-01|   -5.219682|   -9.747429|    1.343197|    0.157754|
|         114|  2.7298e-01|   -5.238229|   -9.737412|    1.370240|    0.161096|
|         115|  2.7291e-01|   -5.258989|   -9.727074|    1.392659|    0.163189|
|         116|  2.7288e-01|   -5.281539|   -9.716273|    1.410308|    0.164007|
|         117|  2.7305e-01|   -5.305297|   -9.705408|    1.423109|    0.163544|
|         118|  2.7290e-01|   -5.329500|   -9.694615|    1.431045|    0.161815|
|         119|  2.7291e-01|   -5.353197|   -9.683925|    1.434164|    0.158852|
|         120|  2.7292e-01|   -5.375295|   -9.673393|    1.432575|    0.154707|
|         121|  2.7269e-01|   -5.394664|   -9.663184|    1.426443|    0.149451|
|         122|  2.7267e-01|   -5.410314|   -9.653282|    1.415992|    0.143169|
|         123|  2.7247e-01|   -5.421609|   -9.643748|    1.401493|    0.135966|
|         124|  2.7244e-01|   -5.428421|   -9.634610|    1.383265|    0.127957|
|         125|  2.7224e-01|   -5.431165|   -9.626017|    1.361668|    0.119270|
|         126|  2.7220e-01|   -5.430690|   -9.618039|    1.337100|    0.110043|
|         127|  2.7215e-01|   -5.428077|   -9.610681|    1.309987|    0.100423|
|         128|  2.7198e-01|   -5.424442|   -9.604005|    1.280780|    0.090557|
|         129|  2.7182e-01|   -5.420789|   -9.598009|    1.249949|    0.080599|
|         130|  2.7176e-01|   -5.417942|   -9.592655|    1.217973|    0.070700|
|         131|  2.7161e-01|   -5.416513|   -9.587891|    1.185339|    0.061007|
|         132|  2.7162e-01|   -5.416964|   -9.583656|    1.152531|    0.051662|
|         133|  2.7155e-01|   -5.419608|   -9.579795|    1.120026|    0.042800|
|         134|  2.7136e-01|   -5.424621|   -9.576354|    1.088289|    0.034543|
|         135|  2.7135e-01|   -5.432070|   -9.573251|    1.057763|    0.027004|
|         136|  2.7117e-01|   -5.441968|   -9.570395|    1.028868|    0.020278|
|         137|  2.7117e-01|   -5.454244|   -9.567659|    1.001994|    0.014448|
|         138|  2.7109e-01|   -5.468745|   -9.565064|    0.977496|    0.009579|
|         139|  2.7102e-01|   -5.485240|   -9.562494|    0.955691|    0.005716|
|         140|  2.7091e-01|   -5.503412|   -9.559884|    0.936854|    0.002892|
|         141|  2.7083e-01|   -5.522865|   -9.557320|    0.921213|    0.001116|
|         142|  2.7071e-01|   -5.543126|   -9.554639|    0.908947|    0.000385|
|         143|  2.7065e-01|   -5.563559|   -9.551754|    0.900189|    0.000675|
|         144|  2.7052e-01|   -5.583374|   -9.548738|    0.895021|    0.001949|
|         145|  2.7049e-01|   -5.601706|   -9.545506|    0.893475|    0.004155|
|         146|  2.7039e-01|   -5.617761|   -9.542125|    0.895533|    0.007228|
|         147|  2.7032e-01|   -5.630802|   -9.538574|    0.901126|    0.011091|
|         148|  2.7013e-01|   -5.640199|   -9.534884|    0.910139|    0.015658|
|         149|  2.7007e-01|   -5.645625|   -9.530938|    0.922410|    0.020835|
|         150|  2.6996e-01|   -5.647153|   -9.526884|    0.937736|    0.026521|
|         151|  2.6999e-01|   -5.645282|   -9.522689|    0.955872|    0.032611|
|         152|  2.6990e-01|   -5.640670|   -9.518320|    0.976539|    0.038998|
|         153|  2.6982e-01|   -5.634055|   -9.513826|    0.999422|    0.045574|
|         154|  2.6966e-01|   -5.626242|   -9.509100|    1.024178|    0.052229|
|         155|  2.6958e-01|   -5.618008|   -9.504254|    1.050443|    0.058860|
|         156|  2.6963e-01|   -5.610036|   -9.499226|    1.077833|    0.065364|
|         157|  2.6965e-01|   -5.602900|   -9.494004|    1.105954|    0.071644|
|         158|  2.6948e-01|   -5.597058|   -9.488650|    1.134403|    0.077611|
|         159|  2.6949e-01|   -5.592869|   -9.483078|    1.162778|    0.083181|
|         160|  2.6935e-01|   -5.590629|   -9.477339|    1.190681|    0.088280|
|         161|  2.6933e-01|   -5.590582|   -9.471438|    1.217725|    0.092842|
|         162|  2.6929e-01|   -5.592926|   -9.465381|    1.243544|    0.096812|
|         163|  2.6921e-01|   -5.597818|   -9.459270|    1.267790|    0.100144|
|         164|  2.6916e-01|   -5.605378|   -9.453160|    1.290147|    0.102804|
|         165|  2.6907e-01|   -5.615684|   -9.447061|    1.310329|    0.104768|
|         166|  2.6901e-01|   -5.628756|   -9.440892|    1.328091|    0.106023|
|         167|  2.6894e-01|   -5.644530|   -9.434704|    1.343226|    0.106568|
|         168|  2.6880e-01|   -5.662862|   -9.428396|    1.355572|    0.106411|
|         169|  2.6881e-01|   -5.683409|   -9.422174|    1.365012|    0.105569|
|         170|  2.6876e-01|   -5.705659|   -9.415954|    1.371475|    0.104070|
|         171|  2.6868e-01|   -5.728873|   -9.409879|    1.374936|    0.101951|
|         172|  2.6864e-01|   -5.751950|   -9.403857|    1.375418|    0.099255|
|         173|  2.6856e-01|   -5.773431|   -9.398036|    1.372988|    0.096033|
|         174|  2.6851e-01|   -5.791678|   -9.392266|    1.367758|    0.092342|
|         175|  2.6844e-01|   -5.805031|   -9.386635|    1.359881|    0.088244|
|         176|  2.6840e-01|   -5.812206|   -9.381241|    1.349550|    0.083805|
|         177|  2.6832e-01|   -5.812704|   -9.376154|    1.336991|    0.079096|
|         178|  2.6828e-01|   -5.806993|   -9.371308|    1.322464|    0.074188|
|         179|  2.6821e-01|   -5.796355|   -9.366612|    1.306250|    0.069154|
|         180|  2.6818e-01|   -5.782492|   -9.361982|    1.288656|    0.064066|
|         181|  2.6810e-01|   -5.767127|   -9.357641|    1.270001|    0.058997|
|         182|  2.6807e-01|   -5.751671|   -9.353444|    1.250612|    0.054017|
|         183|  2.6799e-01|   -5.737386|   -9.349466|    1.230824|    0.049191|
|         184|  2.6796e-01|   -5.725126|   -9.345509|    1.210967|    0.044583|
|         185|  2.6789e-01|   -5.715460|   -9.341475|    1.191366|    0.040253|
|         186|  2.6779e-01|   -5.708749|   -9.337635|    1.172333|    0.036252|
|         187|  2.6771e-01|   -5.705207|   -9.333566|    1.154164|    0.032629|
|         188|  2.6768e-01|   -5.704968|   -9.329598|    1.137129|    0.029424|
|         189|  2.6761e-01|   -5.708136|   -9.325423|    1.121476|    0.026671|
|         190|  2.6759e-01|   -5.714740|   -9.321100|    1.107422|    0.024395|
|         191|  2.6752e-01|   -5.724713|   -9.316256|    1.095156|    0.022615|
|         192|  2.6752e-01|   -5.737933|   -9.311311|    1.084829|    0.021342|
|         193|  2.6744e-01|   -5.754273|   -9.306322|    1.076557|    0.020578|
|         194|  2.6735e-01|   -5.773484|   -9.301337|    1.070421|    0.020319|
|         195|  2.6744e-01|   -5.795041|   -9.296205|    1.066468|    0.020554|
|         196|  2.6742e-01|   -5.818194|   -9.290989|    1.064707|    0.021263|
|         197|  2.6739e-01|   -5.842053|   -9.285590|    1.065114|    0.022420|
|         198|  2.6733e-01|   -5.865387|   -9.280069|    1.067630|    0.023995|
|         199|  2.6730e-01|   -5.886486|   -9.274597|    1.072167|    0.025951|
|         200|  2.6723e-01|   -5.903480|   -9.269084|    1.078610|    0.028246|
|         201|  2.6712e-01|   -5.914781|   -9.263638|    1.086815|    0.030835|
|         202|  2.6714e-01|   -5.919810|   -9.258268|    1.096621|    0.033671|
|         203|  2.6703e-01|   -5.918506|   -9.252895|    1.107842|    0.036704|
|         204|  2.6697e-01|   -5.911658|   -9.247620|    1.120281|    0.039881|
|         205|  2.6694e-01|   -5.900818|   -9.242484|    1.133726|    0.043151|
|         206|  2.6688e-01|   -5.887804|   -9.237495|    1.147957|    0.046461|
|         207|  2.6678e-01|   -5.874413|   -9.232586|    1.162752|    0.049762|
|         208|  2.6679e-01|   -5.861874|   -9.227862|    1.177886|    0.053003|
|         209|  2.6670e-01|   -5.851081|   -9.223220|    1.193134|    0.056139|
|         210|  2.6664e-01|   -5.842720|   -9.218595|    1.208278|    0.059126|
|         211|  2.6660e-01|   -5.837280|   -9.214003|    1.223106|    0.061923|
|         212|  2.6654e-01|   -5.835090|   -9.209426|    1.237421|    0.064495|
|         213|  2.6646e-01|   -5.836357|   -9.204803|    1.251036|    0.066809|
|         214|  2.6641e-01|   -5.841166|   -9.200180|    1.263783|    0.068840|
|         215|  2.6638e-01|   -5.849563|   -9.195480|    1.275508|    0.070565|
|         216|  2.6640e-01|   -5.861570|   -9.190698|    1.286079|    0.071968|
|         217|  2.6639e-01|   -5.877163|   -9.185846|    1.295383|    0.073036|
|         218|  2.6633e-01|   -5.896242|   -9.180909|    1.303330|    0.073763|
|         219|  2.6624e-01|   -5.918594|   -9.175923|    1.309852|    0.074149|
|         220|  2.6619e-01|   -5.943832|   -9.170810|    1.314903|    0.074195|
|         221|  2.6618e-01|   -5.971317|   -9.165694|    1.318462|    0.073912|
|         222|  2.6612e-01|   -6.000056|   -9.160258|    1.320528|    0.073311|
|         223|  2.6604e-01|   -6.028597|   -9.154549|    1.321122|    0.072408|
|         224|  2.6599e-01|   -6.054719|   -9.148701|    1.320286|    0.071225|
|         225|  2.6600e-01|   -6.075670|   -9.142725|    1.318081|    0.069785|
|         226|  2.6592e-01|   -6.089789|   -9.136589|    1.314586|    0.068114|
|         227|  2.6587e-01|   -6.096176|   -9.130325|    1.309896|    0.066241|
|         228|  2.6586e-01|   -6.095001|   -9.123998|    1.304119|    0.064197|
|         229|  2.6580e-01|   -6.087622|   -9.117572|    1.297378|    0.062014|
|         230|  2.6578e-01|   -6.075982|   -9.111047|    1.289805|    0.059726|
|         231|  2.6566e-01|   -6.062114|   -9.104462|    1.281541|    0.057367|
|         232|  2.6568e-01|   -6.047770|   -9.097917|    1.272734|    0.054971|
|         233|  2.6559e-01|   -6.034298|   -9.091354|    1.263533|    0.052571|
|         234|  2.6560e-01|   -6.022723|   -9.084724|    1.254091|    0.050201|
|         235|  2.6559e-01|   -6.013718|   -9.078057|    1.244562|    0.047892|
|         236|  2.6557e-01|   -6.007712|   -9.071369|    1.235092|    0.045674|
|         237|  2.6555e-01|   -6.004963|   -9.064625|    1.225829|    0.043576|
|         238|  2.6552e-01|   -6.005622|   -9.057831|    1.216908|    0.041623|
|         239|  2.6547e-01|   -6.009761|   -9.050990|    1.208461|    0.039838|
|         240|  2.6539e-01|   -6.017402|   -9.044117|    1.200606|    0.038243|
|         241|  2.6535e-01|   -6.028517|   -9.037250|    1.193451|    0.036855|
|         242|  2.6533e-01|   -6.043061|   -9.030285|    1.187091|    0.035688|
|         243|  2.6529e-01|   -6.060974|   -9.023202|    1.181605|    0.034754|
|         244|  2.6526e-01|   -6.082013|   -9.016083|    1.177061|    0.034058|
|         245|  2.6524e-01|   -6.105762|   -9.008929|    1.173509|    0.033607|
|         246|  2.6528e-01|   -6.131588|   -9.001767|    1.170984|    0.033400|
|         247|  2.6529e-01|   -6.158557|   -8.994603|    1.169504|    0.033435|
|         248|  2.6534e-01|   -6.185430|   -8.987448|    1.169073|    0.033705|
|         249|  2.6536e-01|   -6.210667|   -8.980338|    1.169678|    0.034202|
|         250|  2.6536e-01|   -6.232198|   -8.973268|    1.171292|    0.034913|
+-----------------------------------------------------------------------+
|        File Writing Summary       |              Filename             |
+-----------------------------------------------------------------------+
|SU2 binary restart                 |restart_flow.dat                   |
|Paraview                           |flow.vtu                           |
|Paraview surface                   |surface_flow.vtu                   |
+-----------------------------------------------------------------------+
+-----------------------------------------------------------------------------+
|  Inner_Iter|   Time(sec)|      rms[P]|     rms[nu]|          CL|          CD|
+-----------------------------------------------------------------------------+
|         251|  2.6558e-01|   -6.247836|   -8.966235|    1.173872|    0.035823|
|         252|  2.6555e-01|   -6.256003|   -8.959232|    1.177366|    0.036915|
|         253|  2.6559e-01|   -6.256253|   -8.952259|    1.181704|    0.038169|
|         254|  2.6562e-01|   -6.249472|   -8.945324|    1.186809|    0.039564|
|         255|  2.6559e-01|   -6.237600|   -8.938383|    1.192595|    0.041076|
|         256|  2.6562e-01|   -6.222515|   -8.931457|    1.198966|    0.042682|
|         257|  2.6559e-01|   -6.206009|   -8.924560|    1.205821|    0.044355|
|         258|  2.6557e-01|   -6.189657|   -8.917686|    1.213054|    0.046071|
|         259|  2.6559e-01|   -6.174663|   -8.910794|    1.220556|    0.047803|
|         260|  2.6558e-01|   -6.161857|   -8.903888|    1.228217|    0.049527|
|         261|  2.6553e-01|   -6.151751|   -8.896954|    1.235928|    0.051217|
|         262|  2.6553e-01|   -6.144579|   -8.890008|    1.243583|    0.052850|
|         263|  2.6561e-01|   -6.140488|   -8.883037|    1.251076|    0.054403|
|         264|  2.6554e-01|   -6.139588|   -8.876037|    1.258310|    0.055855|
|         265|  2.6554e-01|   -6.141929|   -8.868990|    1.265193|    0.057188|
|         266|  2.6554e-01|   -6.147444|   -8.861920|    1.271639|    0.058384|
|         267|  2.6549e-01|   -6.156088|   -8.854807|    1.277573|    0.059430|
|         268|  2.6550e-01|   -6.167811|   -8.847607|    1.282928|    0.060312|
|         269|  2.6543e-01|   -6.182538|   -8.840351|    1.287647|    0.061021|
|         270|  2.6541e-01|   -6.200134|   -8.833043|    1.291683|    0.061550|
|         271|  2.6538e-01|   -6.220376|   -8.825683|    1.295003|    0.061896|
|         272|  2.6536e-01|   -6.242910|   -8.818230|    1.297581|    0.062057|
|         273|  2.6538e-01|   -6.267107|   -8.810717|    1.299408|    0.062035|
|         274|  2.6536e-01|   -6.291985|   -8.803205|    1.300481|    0.061833|
|         275|  2.6533e-01|   -6.316621|   -8.795589|    1.300812|    0.061458|
|         276|  2.6531e-01|   -6.339863|   -8.787943|    1.300421|    0.060919|
|         277|  2.6531e-01|   -6.360350|   -8.780270|    1.299339|    0.060228|
|         278|  2.6531e-01|   -6.376713|   -8.772558|    1.297607|    0.059398|
|         279|  2.6527e-01|   -6.387871|   -8.764825|    1.295275|    0.058444|
|         280|  2.6521e-01|   -6.393339|   -8.757080|    1.292398|    0.057384|
|         281|  2.6521e-01|   -6.393376|   -8.749329|    1.289040|    0.056233|
|         282|  2.6516e-01|   -6.388917|   -8.741559|    1.285270|    0.055013|
|         283|  2.6512e-01|   -6.381314|   -8.733783|    1.281162|    0.053742|
|         284|  2.6511e-01|   -6.372028|   -8.726012|    1.276790|    0.052441|
|         285|  2.6507e-01|   -6.362401|   -8.718243|    1.272235|    0.051130|
|         286|  2.6501e-01|   -6.353537|   -8.710481|    1.267573|    0.049827|
|         287|  2.6497e-01|   -6.346279|   -8.702732|    1.262885|    0.048554|
|         288|  2.6496e-01|   -6.341236|   -8.694996|    1.258246|    0.047327|
|         289|  2.6493e-01|   -6.338833|   -8.687265|    1.253731|    0.046165|
|         290|  2.6492e-01|   -6.339350|   -8.679546|    1.249409|    0.045083|
|         291|  2.6488e-01|   -6.342958|   -8.671842|    1.245345|    0.044096|
|         292|  2.6487e-01|   -6.349739|   -8.664159|    1.241600|    0.043216|
|         293|  2.6484e-01|   -6.359693|   -8.656476|    1.238227|    0.042453|
|         294|  2.6481e-01|   -6.372731|   -8.648822|    1.235272|    0.041817|
|         295|  2.6475e-01|   -6.388651|   -8.641194|    1.232773|    0.041314|
|         296|  2.6471e-01|   -6.407099|   -8.633593|    1.230761|    0.040947|
|         297|  2.6472e-01|   -6.427509|   -8.626019|    1.229260|    0.040719|
|         298|  2.6466e-01|   -6.449034|   -8.618475|    1.228282|    0.040630|
|         299|  2.6468e-01|   -6.470485|   -8.610960|    1.227835|    0.040678|
|         300|  2.6461e-01|   -6.490313|   -8.603472|    1.227916|    0.040856|
|         301|  2.6461e-01|   -6.506718|   -8.596012|    1.228514|    0.041161|
|         302|  2.6457e-01|   -6.517928|   -8.588573|    1.229613|    0.041582|
|         303|  2.6456e-01|   -6.522631|   -8.581163|    1.231187|    0.042110|
|         304|  2.6453e-01|   -6.520396|   -8.573793|    1.233205|    0.042735|
|         305|  2.6447e-01|   -6.511817|   -8.566470|    1.235629|    0.043443|
|         306|  2.6443e-01|   -6.498305|   -8.559182|    1.238419|    0.044220|
|         307|  2.6443e-01|   -6.481644|   -8.551932|    1.241526|    0.045053|
|         308|  2.6439e-01|   -6.463584|   -8.544730|    1.244900|    0.045927|
|         309|  2.6438e-01|   -6.445587|   -8.537566|    1.248489|    0.046827|
|         310|  2.6435e-01|   -6.428759|   -8.530436|    1.252238|    0.047738|
|         311|  2.6435e-01|   -6.413872|   -8.523352|    1.256091|    0.048644|
|         312|  2.6431e-01|   -6.401434|   -8.516311|    1.259991|    0.049532|
|         313|  2.6434e-01|   -6.391760|   -8.509311|    1.263884|    0.050388|
|         314|  2.6431e-01|   -6.385034|   -8.502354|    1.267716|    0.051198|
|         315|  2.6431e-01|   -6.381347|   -8.495445|    1.271435|    0.051952|
|         316|  2.6428e-01|   -6.380728|   -8.488585|    1.274994|    0.052638|
|         317|  2.6423e-01|   -6.383163|   -8.481775|    1.278347|    0.053247|
|         318|  2.6420e-01|   -6.388601|   -8.475004|    1.281453|    0.053771|
|         319|  2.6419e-01|   -6.396959|   -8.468281|    1.284278|    0.054203|
|         320|  2.6417e-01|   -6.408110|   -8.461611|    1.286788|    0.054539|
|         321|  2.6415e-01|   -6.421882|   -8.454993|    1.288960|    0.054776|
|         322|  2.6412e-01|   -6.438033|   -8.448423|    1.290774|    0.054912|
|         323|  2.6407e-01|   -6.456227|   -8.441898|    1.292214|    0.054946|
|         324|  2.6404e-01|   -6.476016|   -8.435431|    1.293273|    0.054880|
|         325|  2.6408e-01|   -6.496798|   -8.429022|    1.293949|    0.054718|
|         326|  2.6401e-01|   -6.517810|   -8.422668|    1.294244|    0.054462|
|         327|  2.6403e-01|   -6.538122|   -8.416371|    1.294166|    0.054119|
|         328|  2.6398e-01|   -6.556691|   -8.410126|    1.293731|    0.053696|
|         329|  2.6394e-01|   -6.572465|   -8.403946|    1.292955|    0.053199|
|         330|  2.6395e-01|   -6.584549|   -8.397832|    1.291863|    0.052638|
|         331|  2.6391e-01|   -6.592390|   -8.391785|    1.290482|    0.052021|
|         332|  2.6386e-01|   -6.595902|   -8.385809|    1.288840|    0.051358|
|         333|  2.6387e-01|   -6.595315|   -8.379903|    1.286973|    0.050660|
|         334|  2.6387e-01|   -6.591299|   -8.374071|    1.284915|    0.049937|
|         335|  2.6384e-01|   -6.585204|   -8.368314|    1.282703|    0.049198|
|         336|  2.6383e-01|   -6.578232|   -8.362635|    1.280376|    0.048454|
|         337|  2.6380e-01|   -6.571311|   -8.357031|    1.277973|    0.047715|
|         338|  2.6380e-01|   -6.565149|   -8.351505|    1.275533|    0.046991|
|         339|  2.6377e-01|   -6.560275|   -8.346059|    1.273094|    0.046290|
|         340|  2.6372e-01|   -6.557069|   -8.340693|    1.270693|    0.045622|
|         341|  2.6368e-01|   -6.555782|   -8.335403|    1.268364|    0.044992|
|         342|  2.6368e-01|   -6.556562|   -8.330194|    1.266143|    0.044410|
|         343|  2.6365e-01|   -6.559474|   -8.325065|    1.264058|    0.043879|
|         344|  2.6365e-01|   -6.564516|   -8.320015|    1.262137|    0.043406|
|         345|  2.6362e-01|   -6.571617|   -8.315044|    1.260405|    0.042994|
|         346|  2.6356e-01|   -6.580649|   -8.310153|    1.258883|    0.042646|
|         347|  2.6354e-01|   -6.591417|   -8.305340|    1.257586|    0.042364|
|         348|  2.6353e-01|   -6.603658|   -8.300606|    1.256529|    0.042148|
|         349|  2.6351e-01|   -6.617034|   -8.295948|    1.255720|    0.041999|
|         350|  2.6346e-01|   -6.631132|   -8.291366|    1.255164|    0.041915|
|         351|  2.6344e-01|   -6.645467|   -8.286858|    1.254862|    0.041895|
|         352|  2.6348e-01|   -6.659502|   -8.282424|    1.254812|    0.041935|
|         353|  2.6346e-01|   -6.672679|   -8.278064|    1.255006|    0.042031|
|         354|  2.6346e-01|   -6.684473|   -8.273775|    1.255435|    0.042180|
|         355|  2.6343e-01|   -6.694457|   -8.269556|    1.256085|    0.042375|
|         356|  2.6343e-01|   -6.702358|   -8.265406|    1.256940|    0.042611|
|         357|  2.6340e-01|   -6.708113|   -8.261324|    1.257982|    0.042883|
|         358|  2.6338e-01|   -6.711871|   -8.257311|    1.259188|    0.043183|
|         359|  2.6333e-01|   -6.713975|   -8.253363|    1.260535|    0.043505|
|         360|  2.6331e-01|   -6.714910|   -8.249483|    1.262000|    0.043842|
|         361|  2.6330e-01|   -6.715236|   -8.245668|    1.263556|    0.044187|
|         362|  2.6328e-01|   -6.715528|   -8.241920|    1.265176|    0.044533|
|         363|  2.6327e-01|   -6.716327|   -8.238248|    1.266833|    0.044874|
|         364|  2.6325e-01|   -6.718115|   -8.234621|    1.268501|    0.045203|
|         365|  2.6321e-01|   -6.721297|   -8.231036|    1.270154|    0.045514|
|         366|  2.6318e-01|   -6.726198|   -8.227529|    1.271766|    0.045801|
|         367|  2.6318e-01|   -6.733060|   -8.224077|    1.273312|    0.046060|
|         368|  2.6315e-01|   -6.742045|   -8.220685|    1.274771|    0.046285|
|         369|  2.6312e-01|   -6.753232|   -8.217359|    1.276122|    0.046472|
|         370|  2.6308e-01|   -6.766600|   -8.214096|    1.277345|    0.046619|
|         371|  2.6309e-01|   -6.782015|   -8.210892|    1.278425|    0.046722|
|         372|  2.6305e-01|   -6.799195|   -8.207748|    1.279348|    0.046779|
|         373|  2.6303e-01|   -6.817668|   -8.204664|    1.280103|    0.046790|
|         374|  2.6302e-01|   -6.836725|   -8.201642|    1.280681|    0.046753|
|         375|  2.6300e-01|   -6.855378|   -8.198674|    1.281077|    0.046669|
|         376|  2.6296e-01|   -6.872363|   -8.195764|    1.281288|    0.046538|
|         377|  2.6296e-01|   -6.886222|   -8.192918|    1.281314|    0.046363|
|         378|  2.6293e-01|   -6.895505|   -8.190106|    1.281157|    0.046145|
|         379|  2.6293e-01|   -6.899080|   -8.187363|    1.280822|    0.045886|
|         380|  2.6290e-01|   -6.896441|   -8.184684|    1.280318|    0.045591|
|         381|  2.6285e-01|   -6.887864|   -8.182067|    1.279653|    0.045262|
|         382|  2.6287e-01|   -6.874312|   -8.179499|    1.278840|    0.044905|
|         383|  2.6283e-01|   -6.857157|   -8.176985|    1.277891|    0.044523|
|         384|  2.6285e-01|   -6.837853|   -8.174546|    1.276823|    0.044120|
|         385|  2.6285e-01|   -6.817705|   -8.172158|    1.275651|    0.043703|
|         386|  2.6283e-01|   -6.797758|   -8.169801|    1.274394|    0.043275|
|         387|  2.6282e-01|   -6.778779|   -8.167516|    1.273068|    0.042843|
|         388|  2.6280e-01|   -6.761295|   -8.165296|    1.271693|    0.042410|
|         389|  2.6280e-01|   -6.745642|   -8.163139|    1.270287|    0.041982|
|         390|  2.6278e-01|   -6.732017|   -8.161043|    1.268870|    0.041564|
|         391|  2.6277e-01|   -6.720512|   -8.158999|    1.267459|    0.041159|
|         392|  2.6280e-01|   -6.711150|   -8.157006|    1.266072|    0.040773|
|         393|  2.6279e-01|   -6.703902|   -8.155070|    1.264725|    0.040409|
|         394|  2.6278e-01|   -6.698701|   -8.153176|    1.263435|    0.040069|
|         395|  2.6277e-01|   -6.695453|   -8.151337|    1.262216|    0.039759|
|         396|  2.6276e-01|   -6.694039|   -8.149552|    1.261081|    0.039479|
|         397|  2.6274e-01|   -6.694322|   -8.147823|    1.260041|    0.039232|
|         398|  2.6274e-01|   -6.696143|   -8.146148|    1.259106|    0.039019|
|         399|  2.6272e-01|   -6.699326|   -8.144529|    1.258284|    0.038841|
|         400|  2.6268e-01|   -6.703678|   -8.142965|    1.257580|    0.038699|
|         401|  2.6269e-01|   -6.708989|   -8.141454|    1.256999|    0.038592|
|         402|  2.6266e-01|   -6.715035|   -8.139995|    1.256542|    0.038521|
|         403|  2.6267e-01|   -6.721584|   -8.138585|    1.256211|    0.038482|
|         404|  2.6264e-01|   -6.728401|   -8.137213|    1.256003|    0.038476|
|         405|  2.6268e-01|   -6.735258|   -8.135892|    1.255914|    0.038500|
|         406|  2.6268e-01|   -6.741941|   -8.134623|    1.255941|    0.038552|
|         407|  2.6266e-01|   -6.748268|   -8.133365|    1.256076|    0.038629|
|         408|  2.6262e-01|   -6.754093|   -8.132168|    1.256311|    0.038727|
|         409|  2.6260e-01|   -6.759318|   -8.131031|    1.256636|    0.038845|
|         410|  2.6262e-01|   -6.763895|   -8.129915|    1.257042|    0.038977|
|         411|  2.6258e-01|   -6.767831|   -8.128853|    1.257517|    0.039122|
|         412|  2.6257e-01|   -6.771176|   -8.127840|    1.258049|    0.039274|
|         413|  2.6268e-01|   -6.774019|   -8.126876|    1.258626|    0.039431|
|         414|  2.6278e-01|   -6.776472|   -8.125960|    1.259233|    0.039588|
|         415|  2.6276e-01|   -6.778661|   -8.125091|    1.259859|    0.039743|
|         416|  2.6279e-01|   -6.780710|   -8.124266|    1.260491|    0.039892|
|         417|  2.6281e-01|   -6.782729|   -8.123474|    1.261115|    0.040032|
|         418|  2.6277e-01|   -6.784811|   -8.122709|    1.261720|    0.040160|
|         419|  2.6281e-01|   -6.787015|   -8.121981|    1.262293|    0.040274|
|         420|  2.6282e-01|   -6.789373|   -8.121288|    1.262823|    0.040370|
|         421|  2.6283e-01|   -6.791882|   -8.120631|    1.263302|    0.040448|
|         422|  2.6281e-01|   -6.794505|   -8.120014|    1.263719|    0.040505|
|         423|  2.6280e-01|   -6.797178|   -8.119400|    1.264066|    0.040541|
|         424|  2.6279e-01|   -6.799811|   -8.118821|    1.264338|    0.040554|
|         425|  2.6278e-01|   -6.802298|   -8.118285|    1.264528|    0.040545|
|         426|  2.6277e-01|   -6.804524|   -8.117791|    1.264634|    0.040512|
|         427|  2.6275e-01|   -6.806376|   -8.117337|    1.264651|    0.040457|
|         428|  2.6275e-01|   -6.807755|   -8.116911|    1.264579|    0.040380|
|         429|  2.6273e-01|   -6.808584|   -8.116520|    1.264418|    0.040282|
|         430|  2.6273e-01|   -6.808821|   -8.116168|    1.264169|    0.040165|
|         431|  2.6275e-01|   -6.808459|   -8.115828|    1.263835|    0.040030|
|         432|  2.6275e-01|   -6.807534|   -8.115511|    1.263420|    0.039878|
|         433|  2.6273e-01|   -6.806122|   -8.115219|    1.262929|    0.039713|
|         434|  2.6273e-01|   -6.804332|   -8.114939|    1.262367|    0.039535|
|         435|  2.6270e-01|   -6.802301|   -8.114703|    1.261743|    0.039349|
|         436|  2.6268e-01|   -6.800186|   -8.114477|    1.261063|    0.039155|
|         437|  2.6268e-01|   -6.798150|   -8.114292|    1.260336|    0.038958|
|         438|  2.6266e-01|   -6.796360|   -8.114138|    1.259570|    0.038758|
|         439|  2.6266e-01|   -6.794972|   -8.114020|    1.258776|    0.038559|
|         440|  2.6264e-01|   -6.794135|   -8.113936|    1.257961|    0.038363|
|         441|  2.6260e-01|   -6.793978|   -8.113855|    1.257136|    0.038173|
|         442|  2.6262e-01|   -6.794611|   -8.113815|    1.256311|    0.037990|
|         443|  2.6262e-01|   -6.796126|   -8.113795|    1.255493|    0.037817|
|         444|  2.6261e-01|   -6.798593|   -8.113795|    1.254693|    0.037656|
|         445|  2.6260e-01|   -6.802060|   -8.113817|    1.253918|    0.037508|
|         446|  2.6259e-01|   -6.806553|   -8.113872|    1.253176|    0.037374|
|         447|  2.6258e-01|   -6.812078|   -8.113961|    1.252474|    0.037257|
|         448|  2.6261e-01|   -6.818619|   -8.114075|    1.251818|    0.037156|
|         449|  2.6259e-01|   -6.826139|   -8.114209|    1.251215|    0.037072|
|         450|  2.6259e-01|   -6.834577|   -8.114376|    1.250668|    0.037006|
|         451|  2.6256e-01|   -6.843851|   -8.114578|    1.250182|    0.036958|
|         452|  2.6259e-01|   -6.853857|   -8.114802|    1.249758|    0.036927|
|         453|  2.6258e-01|   -6.864470|   -8.115065|    1.249398|    0.036914|
|         454|  2.6255e-01|   -6.875544|   -8.115367|    1.249104|    0.036917|
|         455|  2.6257e-01|   -6.886917|   -8.115702|    1.248874|    0.036937|
|         456|  2.6253e-01|   -6.898415|   -8.116080|    1.248709|    0.036971|
|         457|  2.6251e-01|   -6.909857|   -8.116490|    1.248604|    0.037019|
|         458|  2.6251e-01|   -6.921066|   -8.116948|    1.248558|    0.037079|
|         459|  2.6250e-01|   -6.931874|   -8.117449|    1.248567|    0.037150|
|         460|  2.6252e-01|   -6.942139|   -8.117980|    1.248626|    0.037230|
|         461|  2.6248e-01|   -6.951751|   -8.118571|    1.248731|    0.037318|
|         462|  2.6247e-01|   -6.960637|   -8.119217|    1.248875|    0.037413|
|         463|  2.6246e-01|   -6.968774|   -8.119911|    1.249054|    0.037511|
|         464|  2.6245e-01|   -6.976182|   -8.120661|    1.249259|    0.037612|
|         465|  2.6245e-01|   -6.982925|   -8.121471|    1.249487|    0.037714|
|         466|  2.6243e-01|   -6.989106|   -8.122342|    1.249728|    0.037815|
|         467|  2.6240e-01|   -6.994849|   -8.123277|    1.249978|    0.037914|
|         468|  2.6238e-01|   -7.000300|   -8.124271|    1.250229|    0.038010|
|         469|  2.6238e-01|   -7.005606|   -8.125325|    1.250476|    0.038100|
|         470|  2.6241e-01|   -7.010912|   -8.126447|    1.250711|    0.038185|
|         471|  2.6240e-01|   -7.016350|   -8.127641|    1.250931|    0.038262|
|         472|  2.6241e-01|   -7.022033|   -8.128906|    1.251128|    0.038331|
|         473|  2.6239e-01|   -7.028054|   -8.130232|    1.251300|    0.038391|
|         474|  2.6235e-01|   -7.034481|   -8.131632|    1.251441|    0.038442|
|         475|  2.6237e-01|   -7.041358|   -8.133112|    1.251549|    0.038483|
|         476|  2.6233e-01|   -7.048706|   -8.134652|    1.251619|    0.038513|
|         477|  2.6235e-01|   -7.056523|   -8.136266|    1.251651|    0.038534|
|         478|  2.6232e-01|   -7.064789|   -8.137943|    1.251642|    0.038544|
|         479|  2.6233e-01|   -7.073467|   -8.139704|    1.251592|    0.038545|
|         480|  2.6230e-01|   -7.082511|   -8.141549|    1.251500|    0.038536|
|         481|  2.6230e-01|   -7.091864|   -8.143478|    1.251368|    0.038518|
|         482|  2.6228e-01|   -7.101471|   -8.145492|    1.251195|    0.038491|
|         483|  2.6228e-01|   -7.111277|   -8.147592|    1.250985|    0.038458|
|         484|  2.6226e-01|   -7.121239|   -8.149777|    1.250739|    0.038417|
|         485|  2.6226e-01|   -7.131325|   -8.152048|    1.250461|    0.038371|
|         486|  2.6224e-01|   -7.141520|   -8.154408|    1.250152|    0.038320|
|         487|  2.6224e-01|   -7.151830|   -8.156844|    1.249818|    0.038265|
|         488|  2.6220e-01|   -7.162279|   -8.159362|    1.249462|    0.038207|
|         489|  2.6223e-01|   -7.172912|   -8.161972|    1.249089|    0.038149|
|         490|  2.6218e-01|   -7.183790|   -8.164672|    1.248702|    0.038089|
|         491|  2.6220e-01|   -7.194986|   -8.167462|    1.248307|    0.038031|
|         492|  2.6217e-01|   -7.206578|   -8.170343|    1.247908|    0.037974|
|         493|  2.6216e-01|   -7.218645|   -8.173311|    1.247510|    0.037920|
|         494|  2.6216e-01|   -7.231253|   -8.176361|    1.247116|    0.037869|
|         495|  2.6214e-01|   -7.244451|   -8.179503|    1.246733|    0.037824|
|         496|  2.6214e-01|   -7.258260|   -8.182737|    1.246363|    0.037783|
|         497|  2.6209e-01|   -7.272657|   -8.186064|    1.246010|    0.037749|
|         498|  2.6209e-01|   -7.287569|   -8.189485|    1.245678|    0.037721|
|         499|  2.6208e-01|   -7.302856|   -8.192997|    1.245371|    0.037701|
|         500|  2.6205e-01|   -7.318302|   -8.196603|    1.245090|    0.037688|
+-----------------------------------------------------------------------+
|        File Writing Summary       |              Filename             |
+-----------------------------------------------------------------------+
|SU2 binary restart                 |restart_flow.dat                   |
|Paraview                           |flow.vtu                           |
|Paraview surface                   |surface_flow.vtu                   |
+-----------------------------------------------------------------------+
+-----------------------------------------------------------------------------+
|  Inner_Iter|   Time(sec)|      rms[P]|     rms[nu]|          CL|          CD|
+-----------------------------------------------------------------------------+
|         501|  2.6216e-01|   -7.333600|   -8.200301|    1.244839|    0.037682|
|         502|  2.6216e-01|   -7.348356|   -8.204094|    1.244619|    0.037685|
|         503|  2.6217e-01|   -7.362093|   -8.207982|    1.244431|    0.037696|
|         504|  2.6222e-01|   -7.374272|   -8.211966|    1.244277|    0.037715|
|         505|  2.6218e-01|   -7.384349|   -8.216041|    1.244158|    0.037742|
|         506|  2.6221e-01|   -7.391826|   -8.220210|    1.244071|    0.037776|
|         507|  2.6220e-01|   -7.396337|   -8.224473|    1.244019|    0.037817|
|         508|  2.6220e-01|   -7.397706|   -8.228829|    1.243999|    0.037865|
|         509|  2.6228e-01|   -7.395988|   -8.233285|    1.244011|    0.037919|
|         510|  2.6227e-01|   -7.391461|   -8.237839|    1.244052|    0.037978|
|         511|  2.6226e-01|   -7.384581|   -8.242493|    1.244120|    0.038042|
|         512|  2.6226e-01|   -7.375914|   -8.247244|    1.244214|    0.038110|
|         513|  2.6227e-01|   -7.366063|   -8.252095|    1.244331|    0.038182|
|         514|  2.6227e-01|   -7.355609|   -8.257047|    1.244467|    0.038256|
|         515|  2.6226e-01|   -7.345072|   -8.262098|    1.244620|    0.038331|
|         516|  2.6223e-01|   -7.334892|   -8.267252|    1.244786|    0.038407|
|         517|  2.6224e-01|   -7.325422|   -8.272510|    1.244963|    0.038483|
|         518|  2.6227e-01|   -7.316937|   -8.277878|    1.245148|    0.038559|
|         519|  2.6222e-01|   -7.309644|   -8.283321|    1.245336|    0.038633|
|         520|  2.6222e-01|   -7.303688|   -8.288874|    1.245525|    0.038704|
|         521|  2.6221e-01|   -7.299170|   -8.294534|    1.245712|    0.038773|
|         522|  2.6221e-01|   -7.296152|   -8.300300|    1.245894|    0.038838|
|         523|  2.6221e-01|   -7.294667|   -8.306173|    1.246068|    0.038898|
|         524|  2.6219e-01|   -7.294722|   -8.312157|    1.246232|    0.038955|
|         525|  2.6219e-01|   -7.296308|   -8.318248|    1.246383|    0.039006|
|         526|  2.6215e-01|   -7.299397|   -8.324449|    1.246520|    0.039052|
|         527|  2.6216e-01|   -7.303949|   -8.330761|    1.246641|    0.039093|
|         528|  2.6214e-01|   -7.309912|   -8.337184|    1.246745|    0.039128|
|         529|  2.6213e-01|   -7.317222|   -8.343719|    1.246830|    0.039157|
|         530|  2.6212e-01|   -7.325806|   -8.350367|    1.246896|    0.039181|
|         531|  2.6211e-01|   -7.335583|   -8.357130|    1.246943|    0.039199|
|         532|  2.6211e-01|   -7.346461|   -8.364008|    1.246971|    0.039212|
|         533|  2.6210e-01|   -7.358342|   -8.370999|    1.246980|    0.039219|
|         534|  2.6207e-01|   -7.371120|   -8.378110|    1.246970|    0.039223|
|         535|  2.6208e-01|   -7.384683|   -8.385322|    1.246943|    0.039221|
|         536|  2.6206e-01|   -7.398917|   -8.392658|    1.246899|    0.039216|
|         537|  2.6204e-01|   -7.413703|   -8.400114|    1.246841|    0.039208|
|         538|  2.6204e-01|   -7.428926|   -8.407685|    1.246769|    0.039196|
|         539|  2.6202e-01|   -7.444472|   -8.415376|    1.246686|    0.039182|
|         540|  2.6200e-01|   -7.460233|   -8.423184|    1.246593|    0.039167|
|         541|  2.6201e-01|   -7.476108|   -8.431110|    1.246493|    0.039150|
|         542|  2.6199e-01|   -7.492004|   -8.439152|    1.246388|    0.039132|
|         543|  2.6196e-01|   -7.507834|   -8.447311|    1.246279|    0.039115|
|         544|  2.6198e-01|   -7.523520|   -8.455586|    1.246170|    0.039098|
|         545|  2.6194e-01|   -7.538982|   -8.463977|    1.246062|    0.039082|
|         546|  2.6193e-01|   -7.554138|   -8.472483|    1.245958|    0.039067|
|         547|  2.6193e-01|   -7.568897|   -8.481102|    1.245859|    0.039055|
|         548|  2.6194e-01|   -7.583149|   -8.489832|    1.245767|    0.039045|
|         549|  2.6195e-01|   -7.596763|   -8.498672|    1.245685|    0.039037|
|         550|  2.6193e-01|   -7.609582|   -8.507620|    1.245614|    0.039033|
|         551|  2.6190e-01|   -7.621419|   -8.516675|    1.245556|    0.039031|
|         552|  2.6189e-01|   -7.632066|   -8.525834|    1.245511|    0.039033|
|         553|  2.6188e-01|   -7.641304|   -8.535095|    1.245481|    0.039039|
|         554|  2.6190e-01|   -7.648919|   -8.544455|    1.245466|    0.039048|
|         555|  2.6187e-01|   -7.654727|   -8.553910|    1.245468|    0.039061|
|         556|  2.6186e-01|   -7.658599|   -8.563457|    1.245486|    0.039078|
|         557|  2.6187e-01|   -7.660479|   -8.573089|    1.245521|    0.039097|
|         558|  2.6186e-01|   -7.660403|   -8.582798|    1.245573|    0.039121|
|         559|  2.6182e-01|   -7.658501|   -8.592574|    1.245641|    0.039147|
|         560|  2.6183e-01|   -7.654989|   -8.602406|    1.245724|    0.039176|
|         561|  2.6181e-01|   -7.650150|   -8.612299|    1.245823|    0.039207|
|         562|  2.6182e-01|   -7.644310|   -8.622246|    1.245935|    0.039240|
|         563|  2.6180e-01|   -7.637811|   -8.632238|    1.246061|    0.039276|
|         564|  2.6181e-01|   -7.630990|   -8.642269|    1.246198|    0.039312|
|         565|  2.6179e-01|   -7.624163|   -8.652328|    1.246345|    0.039350|
|         566|  2.6180e-01|   -7.617610|   -8.662404|    1.246502|    0.039388|
|         567|  2.6178e-01|   -7.611573|   -8.672486|    1.246665|    0.039427|
|         568|  2.6179e-01|   -7.606251|   -8.682564|    1.246834|    0.039465|
|         569|  2.6179e-01|   -7.601800|   -8.692618|    1.247008|    0.039503|
|         570|  2.6178e-01|   -7.598340|   -8.702636|    1.247184|    0.039539|
|         571|  2.6178e-01|   -7.595953|   -8.712607|    1.247360|    0.039575|
|         572|  2.6176e-01|   -7.594689|   -8.722489|    1.247536|    0.039608|
|         573|  2.6175e-01|   -7.594565|   -8.732301|    1.247710|    0.039640|
|         574|  2.6175e-01|   -7.595573|   -8.742011|    1.247880|    0.039669|
|         575|  2.6174e-01|   -7.597675|   -8.751604|    1.248046|    0.039696|
|         576|  2.6174e-01|   -7.600807|   -8.761064|    1.248205|    0.039721|
|         577|  2.6174e-01|   -7.604880|   -8.770370|    1.248357|    0.039742|
|         578|  2.6172e-01|   -7.609777|   -8.779504|    1.248501|    0.039761|
|         579|  2.6173e-01|   -7.615359|   -8.788439|    1.248636|    0.039776|
|         580|  2.6171e-01|   -7.621463|   -8.797151|    1.248762|    0.039789|
|         581|  2.6171e-01|   -7.627902|   -8.805630|    1.248878|    0.039798|
|         582|  2.6170e-01|   -7.634479|   -8.813859|    1.248983|    0.039805|
|         583|  2.6168e-01|   -7.640981|   -8.821820|    1.249079|    0.039809|
|         584|  2.6169e-01|   -7.647198|   -8.829488|    1.249165|    0.039810|
|         585|  2.6167e-01|   -7.652929|   -8.836841|    1.249241|    0.039808|
|         586|  2.6170e-01|   -7.657994|   -8.843856|    1.249307|    0.039805|
|         587|  2.6174e-01|   -7.662247|   -8.850505|    1.249364|    0.039799|
|         588|  2.6171e-01|   -7.665586|   -8.856810|    1.249413|    0.039791|
|         589|  2.6173e-01|   -7.667958|   -8.862755|    1.249454|    0.039781|
|         590|  2.6171e-01|   -7.669361|   -8.868327|    1.249489|    0.039770|
|         591|  2.6170e-01|   -7.669844|   -8.873513|    1.249518|    0.039758|
|         592|  2.6169e-01|   -7.669498|   -8.878295|    1.249542|    0.039746|
|         593|  2.6169e-01|   -7.668444|   -8.882689|    1.249562|    0.039732|
|         594|  2.6168e-01|   -7.666825|   -8.886688|    1.249580|    0.039719|
|         595|  2.6168e-01|   -7.664791|   -8.890294|    1.249596|    0.039705|
|         596|  2.6167e-01|   -7.662486|   -8.893514|    1.249611|    0.039692|
|         597|  2.6166e-01|   -7.660045|   -8.896363|    1.249627|    0.039679|
|         598|  2.6163e-01|   -7.657583|   -8.898841|    1.249645|    0.039667|
|         599|  2.6165e-01|   -7.655192|   -8.900971|    1.249665|    0.039656|
|         600|  2.6163e-01|   -7.652943|   -8.902770|    1.249689|    0.039646|
|         601|  2.6161e-01|   -7.650881|   -8.904255|    1.249717|    0.039637|
|         602|  2.6162e-01|   -7.649028|   -8.905443|    1.249750|    0.039630|
|         603|  2.6160e-01|   -7.647388|   -8.906354|    1.249789|    0.039624|
|         604|  2.6160e-01|   -7.645946|   -8.907010|    1.249834|    0.039620|
|         605|  2.6159e-01|   -7.644677|   -8.907407|    1.249886|    0.039618|
|         606|  2.6160e-01|   -7.643542|   -8.907665|    1.249946|    0.039617|
|         607|  2.6160e-01|   -7.642500|   -8.907699|    1.250012|    0.039618|
|         608|  2.6159e-01|   -7.641506|   -8.907530|    1.250087|    0.039620|
|         609|  2.6159e-01|   -7.640520|   -8.907287|    1.250169|    0.039625|
|         610|  2.6160e-01|   -7.639505|   -8.906893|    1.250258|    0.039630|
|         611|  2.6160e-01|   -7.638435|   -8.906410|    1.250354|    0.039638|
|         612|  2.6159e-01|   -7.637292|   -8.905845|    1.250458|    0.039646|
|         613|  2.6159e-01|   -7.636074|   -8.905209|    1.250568|    0.039656|
|         614|  2.6158e-01|   -7.634788|   -8.904516|    1.250684|    0.039666|
|         615|  2.6158e-01|   -7.633454|   -8.903763|    1.250805|    0.039677|
|         616|  2.6158e-01|   -7.632102|   -8.902975|    1.250931|    0.039690|
|         617|  2.6157e-01|   -7.630773|   -8.902159|    1.251062|    0.039702|
|         618|  2.6157e-01|   -7.629510|   -8.901328|    1.251196|    0.039715|
|         619|  2.6156e-01|   -7.628366|   -8.900485|    1.251333|    0.039728|
|         620|  2.6155e-01|   -7.627390|   -8.899675|    1.251472|    0.039740|
|         621|  2.6152e-01|   -7.626634|   -8.898885|    1.251612|    0.039753|
|         622|  2.6153e-01|   -7.626145|   -8.898123|    1.251752|    0.039765|
|         623|  2.6154e-01|   -7.625968|   -8.897385|    1.251892|    0.039777|
|         624|  2.6151e-01|   -7.626139|   -8.896721|    1.252031|    0.039787|
|         625|  2.6152e-01|   -7.626688|   -8.896090|    1.252169|    0.039797|
|         626|  2.6155e-01|   -7.627640|   -8.895546|    1.252304|    0.039806|
|         627|  2.6154e-01|   -7.629010|   -8.895102|    1.252435|    0.039814|
|         628|  2.6155e-01|   -7.630803|   -8.894689|    1.252564|    0.039820|
|         629|  2.6153e-01|   -7.633020|   -8.894373|    1.252688|    0.039826|
|         630|  2.6152e-01|   -7.635653|   -8.894168|    1.252809|    0.039830|
|         631|  2.6152e-01|   -7.638685|   -8.894000|    1.252924|    0.039832|
|         632|  2.6152e-01|   -7.642096|   -8.893873|    1.253034|    0.039834|
|         633|  2.6149e-01|   -7.645855|   -8.893830|    1.253140|    0.039834|
|         634|  2.6151e-01|   -7.649931|   -8.893868|    1.253240|    0.039832|
|         635|  2.6148e-01|   -7.654285|   -8.893949|    1.253335|    0.039830|
|         636|  2.6149e-01|   -7.658874|   -8.894071|    1.253425|    0.039826|
|         637|  2.6149e-01|   -7.663654|   -8.894235|    1.253510|    0.039821|
|         638|  2.6148e-01|   -7.668575|   -8.894441|    1.253590|    0.039815|
|         639|  2.6146e-01|   -7.673586|   -8.894689|    1.253666|    0.039808|
|         640|  2.6147e-01|   -7.678633|   -8.894976|    1.253738|    0.039801|
|         641|  2.6145e-01|   -7.683661|   -8.895300|    1.253806|    0.039792|
|         642|  2.6146e-01|   -7.688613|   -8.895660|    1.253871|    0.039784|
|         643|  2.6145e-01|   -7.693428|   -8.896059|    1.253932|    0.039774|
|         644|  2.6146e-01|   -7.698047|   -8.896494|    1.253992|    0.039765|
|         645|  2.6146e-01|   -7.702407|   -8.896956|    1.254050|    0.039755|
|         646|  2.6146e-01|   -7.706444|   -8.897461|    1.254106|    0.039745|
|         647|  2.6146e-01|   -7.710094|   -8.898043|    1.254162|    0.039736|
|         648|  2.6145e-01|   -7.713291|   -8.898650|    1.254217|    0.039726|
|         649|  2.6145e-01|   -7.715974|   -8.899283|    1.254273|    0.039717|
|         650|  2.6144e-01|   -7.718082|   -8.899962|    1.254329|    0.039709|
|         651|  2.6144e-01|   -7.719559|   -8.900664|    1.254387|    0.039701|
|         652|  2.6143e-01|   -7.720357|   -8.901453|    1.254447|    0.039694|
|         653|  2.6143e-01|   -7.720436|   -8.902284|    1.254509|    0.039687|
|         654|  2.6142e-01|   -7.719769|   -8.903144|    1.254573|    0.039681|
|         655|  2.6142e-01|   -7.718344|   -8.904039|    1.254640|    0.039676|
|         656|  2.6141e-01|   -7.716162|   -8.904961|    1.254711|    0.039672|
|         657|  2.6138e-01|   -7.713243|   -8.905872|    1.254784|    0.039669|
|         658|  2.6140e-01|   -7.709623|   -8.906873|    1.254861|    0.039667|
|         659|  2.6138e-01|   -7.705351|   -8.907907|    1.254942|    0.039665|
|         660|  2.6136e-01|   -7.700495|   -8.908985|    1.255026|    0.039665|
|         661|  2.6139e-01|   -7.695129|   -8.910099|    1.255114|    0.039665|
|         662|  2.6138e-01|   -7.689339|   -8.911226|    1.255206|    0.039666|
|         663|  2.6141e-01|   -7.683216|   -8.912373|    1.255301|    0.039668|
|         664|  2.6140e-01|   -7.676854|   -8.913554|    1.255399|    0.039671|
|         665|  2.6142e-01|   -7.670345|   -8.914820|    1.255501|    0.039674|
|         666|  2.6141e-01|   -7.663781|   -8.916106|    1.255605|    0.039677|
|         667|  2.6141e-01|   -7.657246|   -8.917420|    1.255712|    0.039681|
|         668|  2.6143e-01|   -7.650821|   -8.918786|    1.255821|    0.039686|
|         669|  2.6141e-01|   -7.644576|   -8.920187|    1.255932|    0.039690|
|         670|  2.6142e-01|   -7.638577|   -8.921617|    1.256045|    0.039695|
|         671|  2.6140e-01|   -7.632879|   -8.923070|    1.256159|    0.039700|
|         672|  2.6141e-01|   -7.627528|   -8.924520|    1.256274|    0.039705|
|         673|  2.6140e-01|   -7.622562|   -8.926041|    1.256389|    0.039709|
|         674|  2.6140e-01|   -7.618012|   -8.927538|    1.256505|    0.039714|
|         675|  2.6139e-01|   -7.613901|   -8.929184|    1.256620|    0.039718|
|         676|  2.6139e-01|   -7.610244|   -8.930850|    1.256734|    0.039721|
|         677|  2.6138e-01|   -7.607051|   -8.932537|    1.256848|    0.039725|
|         678|  2.6138e-01|   -7.604325|   -8.934258|    1.256960|    0.039727|
|         679|  2.6139e-01|   -7.602062|   -8.936005|    1.257071|    0.039729|
|         680|  2.6139e-01|   -7.600257|   -8.937776|    1.257180|    0.039731|
|         681|  2.6140e-01|   -7.598897|   -8.939573|    1.257287|    0.039732|
|         682|  2.6140e-01|   -7.597967|   -8.941396|    1.257392|    0.039732|
|         683|  2.6139e-01|   -7.597447|   -8.943246|    1.257495|    0.039732|
|         684|  2.6139e-01|   -7.597315|   -8.945120|    1.257595|    0.039730|
|         685|  2.6138e-01|   -7.597548|   -8.947008|    1.257692|    0.039729|
|         686|  2.6138e-01|   -7.598119|   -8.948923|    1.257787|    0.039726|
|         687|  2.6137e-01|   -7.598998|   -8.950857|    1.257880|    0.039723|
|         688|  2.6137e-01|   -7.600157|   -8.952806|    1.257970|    0.039719|
|         689|  2.6136e-01|   -7.601565|   -8.954764|    1.258057|    0.039715|
|         690|  2.6134e-01|   -7.603192|   -8.956770|    1.258143|    0.039710|
|         691|  2.6135e-01|   -7.605006|   -8.958802|    1.258226|    0.039705|
|         692|  2.6133e-01|   -7.606977|   -8.960856|    1.258307|    0.039699|
|         693|  2.6132e-01|   -7.609075|   -8.962934|    1.258386|    0.039693|
|         694|  2.6133e-01|   -7.611270|   -8.965028|    1.258464|    0.039686|
|         695|  2.6132e-01|   -7.613536|   -8.967136|    1.258541|    0.039680|
|         696|  2.6132e-01|   -7.615846|   -8.969270|    1.258616|    0.039673|
|         697|  2.6131e-01|   -7.618176|   -8.971431|    1.258690|    0.039666|
|         698|  2.6131e-01|   -7.620504|   -8.973609|    1.258764|    0.039659|
|         699|  2.6131e-01|   -7.622811|   -8.975801|    1.258838|    0.039652|
|         700|  2.6130e-01|   -7.625081|   -8.978001|    1.258912|    0.039646|
|         701|  2.6129e-01|   -7.627300|   -8.980235|    1.258986|    0.039639|
|         702|  2.6129e-01|   -7.629458|   -8.982485|    1.259060|    0.039633|
|         703|  2.6128e-01|   -7.631546|   -8.984747|    1.259135|    0.039626|
|         704|  2.6131e-01|   -7.633560|   -8.987022|    1.259210|    0.039620|
|         705|  2.6132e-01|   -7.635501|   -8.989310|    1.259287|    0.039615|
|         706|  2.6132e-01|   -7.637371|   -8.991609|    1.259365|    0.039609|
|         707|  2.6131e-01|   -7.639175|   -8.993888|    1.259444|    0.039604|
|         708|  2.6132e-01|   -7.640923|   -8.996252|    1.259525|    0.039600|
|         709|  2.6130e-01|   -7.642626|   -8.998678|    1.259607|    0.039596|
|         710|  2.6131e-01|   -7.644301|   -9.001092|    1.259691|    0.039592|
|         711|  2.6129e-01|   -7.645964|   -9.003518|    1.259777|    0.039588|
|         712|  2.6130e-01|   -7.647634|   -9.005964|    1.259864|    0.039585|
|         713|  2.6130e-01|   -7.649335|   -9.008464|    1.259953|    0.039582|
|         714|  2.6129e-01|   -7.651087|   -9.010969|    1.260043|    0.039580|
|         715|  2.6129e-01|   -7.652917|   -9.013491|    1.260135|    0.039578|
|         716|  2.6131e-01|   -7.654848|   -9.016027|    1.260229|    0.039576|
|         717|  2.6131e-01|   -7.656906|   -9.018580|    1.260323|    0.039574|
|         718|  2.6130e-01|   -7.659115|   -9.021151|    1.260419|    0.039572|
|         719|  2.6130e-01|   -7.661501|   -9.023736|    1.260516|    0.039571|
|         720|  2.6129e-01|   -7.664086|   -9.026340|    1.260614|    0.039570|
|         721|  2.6129e-01|   -7.666893|   -9.028977|    1.260712|    0.039568|
|         722|  2.6129e-01|   -7.669943|   -9.031651|    1.260811|    0.039567|
|         723|  2.6128e-01|   -7.673255|   -9.034338|    1.260911|    0.039565|
|         724|  2.6128e-01|   -7.676844|   -9.037041|    1.261010|    0.039564|
|         725|  2.6127e-01|   -7.680726|   -9.039753|    1.261110|    0.039562|
|         726|  2.6125e-01|   -7.684911|   -9.042515|    1.261209|    0.039560|
|         727|  2.6124e-01|   -7.689409|   -9.045286|    1.261308|    0.039558|
|         728|  2.6124e-01|   -7.694225|   -9.048091|    1.261406|    0.039556|
|         729|  2.6124e-01|   -7.699362|   -9.050859|    1.261503|    0.039553|
|         730|  2.6123e-01|   -7.704820|   -9.053658|    1.261600|    0.039550|
|         731|  2.6125e-01|   -7.710595|   -9.056527|    1.261695|    0.039547|
|         732|  2.6124e-01|   -7.716680|   -9.059447|    1.261789|    0.039543|
|         733|  2.6124e-01|   -7.723065|   -9.062396|    1.261882|    0.039539|
|         734|  2.6123e-01|   -7.729735|   -9.065353|    1.261974|    0.039535|
|         735|  2.6121e-01|   -7.736675|   -9.068325|    1.262064|    0.039530|
|         736|  2.6123e-01|   -7.743864|   -9.071317|    1.262153|    0.039525|
|         737|  2.6121e-01|   -7.751278|   -9.074319|    1.262240|    0.039520|
|         738|  2.6122e-01|   -7.758892|   -9.077317|    1.262326|    0.039514|
|         739|  2.6120e-01|   -7.766676|   -9.080341|    1.262410|    0.039508|
|         740|  2.6118e-01|   -7.774600|   -9.083419|    1.262492|    0.039501|
|         741|  2.6119e-01|   -7.782628|   -9.086531|    1.262573|    0.039494|
|         742|  2.6118e-01|   -7.790726|   -9.089649|    1.262653|    0.039487|
|         743|  2.6121e-01|   -7.798856|   -9.092783|    1.262731|    0.039479|
|         744|  2.6121e-01|   -7.806981|   -9.095928|    1.262808|    0.039472|
|         745|  2.6120e-01|   -7.815060|   -9.099084|    1.262884|    0.039464|
|         746|  2.6120e-01|   -7.823056|   -9.102249|    1.262959|    0.039456|
|         747|  2.6119e-01|   -7.830930|   -9.105421|    1.263032|    0.039448|
|         748|  2.6119e-01|   -7.838645|   -9.108588|    1.263105|    0.039439|
|         749|  2.6117e-01|   -7.846166|   -9.111775|    1.263178|    0.039431|
|         750|  2.6116e-01|   -7.853459|   -9.114971|    1.263249|    0.039423|
+-----------------------------------------------------------------------+
|        File Writing Summary       |              Filename             |
+-----------------------------------------------------------------------+
|SU2 binary restart                 |restart_flow.dat                   |
|Paraview                           |flow.vtu                           |
|Paraview surface                   |surface_flow.vtu                   |
+-----------------------------------------------------------------------+
+-----------------------------------------------------------------------------+
|  Inner_Iter|   Time(sec)|      rms[P]|     rms[nu]|          CL|          CD|
+-----------------------------------------------------------------------------+
|         751|  2.6125e-01|   -7.860493|   -9.118172|    1.263321|    0.039414|
|         752|  2.6124e-01|   -7.867243|   -9.121378|    1.263392|    0.039406|
|         753|  2.6124e-01|   -7.873683|   -9.124589|    1.263462|    0.039398|
|         754|  2.6123e-01|   -7.879796|   -9.127804|    1.263533|    0.039390|
|         755|  2.6123e-01|   -7.885565|   -9.131024|    1.263603|    0.039382|
|         756|  2.6126e-01|   -7.890979|   -9.134246|    1.263674|    0.039374|
|         757|  2.6128e-01|   -7.896032|   -9.137470|    1.263745|    0.039366|
|         758|  2.6129e-01|   -7.900722|   -9.140692|    1.263816|    0.039358|
|         759|  2.6130e-01|   -7.905050|   -9.143909|    1.263887|    0.039351|
|         760|  2.6133e-01|   -7.909022|   -9.147104|    1.263959|    0.039344|
|         761|  2.6131e-01|   -7.912648|   -9.150360|    1.264031|    0.039337|
|         762|  2.6132e-01|   -7.915938|   -9.153587|    1.264104|    0.039330|
|         763|  2.6134e-01|   -7.918909|   -9.156799|    1.264177|    0.039323|
|         764|  2.6134e-01|   -7.921578|   -9.159995|    1.264251|    0.039317|
|         765|  2.6134e-01|   -7.923964|   -9.163173|    1.264325|    0.039310|
|         766|  2.6133e-01|   -7.926088|   -9.166332|    1.264399|    0.039304|
|         767|  2.6135e-01|   -7.927970|   -9.169471|    1.264474|    0.039298|
|         768|  2.6135e-01|   -7.929634|   -9.172588|    1.264549|    0.039293|
|         769|  2.6135e-01|   -7.931100|   -9.175681|    1.264625|    0.039287|
|         770|  2.6136e-01|   -7.932392|   -9.178753|    1.264700|    0.039281|
|         771|  2.6138e-01|   -7.933531|   -9.181790|    1.264776|    0.039276|
|         772|  2.6137e-01|   -7.934536|   -9.184772|    1.264852|    0.039271|
|         773|  2.6135e-01|   -7.935428|   -9.187754|    1.264928|    0.039265|
|         774|  2.6136e-01|   -7.936224|   -9.190720|    1.265004|    0.039260|
|         775|  2.6135e-01|   -7.936941|   -9.193626|    1.265080|    0.039255|
|         776|  2.6138e-01|   -7.937596|   -9.196490|    1.265156|    0.039250|
|         777|  2.6138e-01|   -7.938200|   -9.199309|    1.265231|    0.039244|
|         778|  2.6136e-01|   -7.938768|   -9.202081|    1.265306|    0.039239|
|         779|  2.6135e-01|   -7.939309|   -9.204803|    1.265380|    0.039234|
|         780|  2.6136e-01|   -7.939833|   -9.207472|    1.265454|    0.039228|
|         781|  2.6138e-01|   -7.940347|   -9.210085|    1.265527|    0.039223|
|         782|  2.6137e-01|   -7.940859|   -9.212593|    1.265599|    0.039217|
|         783|  2.6138e-01|   -7.941374|   -9.215076|    1.265670|    0.039212|
|         784|  2.6136e-01|   -7.941896|   -9.217558|    1.265741|    0.039206|
|         785|  2.6136e-01|   -7.942429|   -9.219992|    1.265811|    0.039200|
|         786|  2.6135e-01|   -7.942976|   -9.222353|    1.265880|    0.039194|
|         787|  2.6135e-01|   -7.943540|   -9.224638|    1.265947|    0.039188|
|         788|  2.6134e-01|   -7.944122|   -9.226868|    1.266014|    0.039181|
|         789|  2.6134e-01|   -7.944724|   -9.229027|    1.266080|    0.039175|
|         790|  2.6133e-01|   -7.945348|   -9.231116|    1.266145|    0.039168|
|         791|  2.6133e-01|   -7.945993|   -9.233138|    1.266209|    0.039162|
|         792|  2.6135e-01|   -7.946662|   -9.235095|    1.266272|    0.039155|
|         793|  2.6135e-01|   -7.947355|   -9.236984|    1.266334|    0.039148|
|         794|  2.6134e-01|   -7.948071|   -9.238807|    1.266396|    0.039141|
|         795|  2.6134e-01|   -7.948812|   -9.240563|    1.266456|    0.039134|
|         796|  2.6133e-01|   -7.949577|   -9.242254|    1.266515|    0.039127|
|         797|  2.6133e-01|   -7.950364|   -9.243880|    1.266574|    0.039120|
|         798|  2.6132e-01|   -7.951174|   -9.245439|    1.266632|    0.039113|
|         799|  2.6132e-01|   -7.952004|   -9.246933|    1.266690|    0.039106|
|         800|  2.6133e-01|   -7.952852|   -9.248361|    1.266747|    0.039099|
|         801|  2.6132e-01|   -7.953715|   -9.249726|    1.266803|    0.039092|
|         802|  2.6133e-01|   -7.954590|   -9.251031|    1.266859|    0.039085|
|         803|  2.6133e-01|   -7.955471|   -9.252276|    1.266914|    0.039078|
|         804|  2.6132e-01|   -7.956354|   -9.253463|    1.266969|    0.039072|
|         805|  2.6131e-01|   -7.957233|   -9.254594|    1.267024|    0.039065|
|         806|  2.6132e-01|   -7.958100|   -9.255667|    1.267079|    0.039059|
|         807|  2.6131e-01|   -7.958949|   -9.256684|    1.267133|    0.039052|
|         808|  2.6131e-01|   -7.959772|   -9.257649|    1.267188|    0.039046|
|         809|  2.6130e-01|   -7.960560|   -9.258557|    1.267242|    0.039040|
|         810|  2.6130e-01|   -7.961304|   -9.259388|    1.267297|    0.039034|
|         811|  2.6129e-01|   -7.961996|   -9.260213|    1.267351|    0.039028|
|         812|  2.6129e-01|   -7.962627|   -9.261006|    1.267405|    0.039023|
|         813|  2.6128e-01|   -7.963190|   -9.261740|    1.267460|    0.039017|
|         814|  2.6128e-01|   -7.963675|   -9.262423|    1.267514|    0.039012|
|         815|  2.6127e-01|   -7.964076|   -9.263069|    1.267569|    0.039007|
|         816|  2.6127e-01|   -7.964387|   -9.263667|    1.267624|    0.039002|
|         817|  2.6126e-01|   -7.964601|   -9.264227|    1.267679|    0.038997|
|         818|  2.6126e-01|   -7.964715|   -9.264761|    1.267734|    0.038993|
|         819|  2.6125e-01|   -7.964725|   -9.265247|    1.267789|    0.038988|
|         820|  2.6127e-01|   -7.964629|   -9.265696|    1.267844|    0.038984|
|         821|  2.6127e-01|   -7.964426|   -9.266100|    1.267899|    0.038980|
|         822|  2.6126e-01|   -7.964116|   -9.266481|    1.267955|    0.038976|
[...]
|        5888|  2.6639e-01|   -8.986246|   -9.576075|    1.233445|    0.043282|
|        5889|  2.6639e-01|   -8.986304|   -9.576188|    1.233440|    0.043282|
|        5890|  2.6639e-01|   -8.986361|   -9.576299|    1.233434|    0.043283|
|        5891|  2.6639e-01|   -8.986418|   -9.576411|    1.233429|    0.043284|
|        5892|  2.6639e-01|   -8.986474|   -9.576521|    1.233424|    0.043284|
|        5893|  2.6639e-01|   -8.986530|   -9.576631|    1.233418|    0.043285|
|        5894|  2.6639e-01|   -8.986584|   -9.576741|    1.233413|    0.043286|
|        5895|  2.6639e-01|   -8.986638|   -9.576849|    1.233408|    0.043287|
|        5896|  2.6639e-01|   -8.986691|   -9.576957|    1.233402|    0.043287|
|        5897|  2.6639e-01|   -8.986743|   -9.577064|    1.233397|    0.043288|
|        5898|  2.6639e-01|   -8.986794|   -9.577170|    1.233392|    0.043289|
|        5899|  2.6639e-01|   -8.986844|   -9.577276|    1.233386|    0.043289|
|        5900|  2.6639e-01|   -8.986893|   -9.577380|    1.233381|    0.043290|
|        5901|  2.6639e-01|   -8.986941|   -9.577483|    1.233376|    0.043291|
|        5902|  2.6639e-01|   -8.986988|   -9.577585|    1.233370|    0.043291|
|        5903|  2.6639e-01|   -8.987035|   -9.577687|    1.233365|    0.043292|
|        5904|  2.6639e-01|   -8.987080|   -9.577788|    1.233360|    0.043293|
|        5905|  2.6639e-01|   -8.987124|   -9.577888|    1.233354|    0.043294|
|        5906|  2.6640e-01|   -8.987167|   -9.577987|    1.233349|    0.043294|
|        5907|  2.6640e-01|   -8.987210|   -9.578086|    1.233344|    0.043295|
|        5908|  2.6642e-01|   -8.987251|   -9.578184|    1.233338|    0.043296|
|        5909|  2.6643e-01|   -8.987292|   -9.578281|    1.233333|    0.043296|
|        5910|  2.6656e-01|   -8.987331|   -9.578377|    1.233328|    0.043297|
|        5911|  2.6668e-01|   -8.987370|   -9.578473|    1.233322|    0.043298|
|        5912|  2.6705e-01|   -8.987408|   -9.578568|    1.233317|    0.043298|
|        5913|  2.6710e-01|   -8.987445|   -9.578663|    1.233312|    0.043299|
|        5914|  2.6717e-01|   -8.987481|   -9.578757|    1.233306|    0.043300|
|        5915|  2.6725e-01|   -8.987517|   -9.578851|    1.233301|    0.043301|
|        5916|  2.6728e-01|   -8.987551|   -9.578944|    1.233296|    0.043301|
|        5917|  2.6729e-01|   -8.987585|   -9.579037|    1.233290|    0.043302|
|        5918|  2.6729e-01|   -8.987619|   -9.579129|    1.233285|    0.043303|
|        5919|  2.6729e-01|   -8.987652|   -9.579221|    1.233280|    0.043303|
|        5920|  2.6729e-01|   -8.987684|   -9.579313|    1.233274|    0.043304|
|        5921|  2.6729e-01|   -8.987716|   -9.579405|    1.233269|    0.043305|
|        5922|  2.6730e-01|   -8.987747|   -9.579496|    1.233263|    0.043305|
|        5923|  2.6730e-01|   -8.987779|   -9.579587|    1.233258|    0.043306|
|        5924|  2.6731e-01|   -8.987809|   -9.579678|    1.233253|    0.043307|
|        5925|  2.6731e-01|   -8.987840|   -9.579768|    1.233247|    0.043308|
|        5926|  2.6732e-01|   -8.987870|   -9.579859|    1.233242|    0.043308|
|        5927|  2.6732e-01|   -8.987900|   -9.579949|    1.233237|    0.043309|
|        5928|  2.6732e-01|   -8.987930|   -9.580039|    1.233231|    0.043310|
|        5929|  2.6732e-01|   -8.987960|   -9.580128|    1.233226|    0.043310|
|        5930|  2.6733e-01|   -8.987989|   -9.580216|    1.233221|    0.043311|
|        5931|  2.6733e-01|   -8.988019|   -9.580303|    1.233215|    0.043312|
|        5932|  2.6733e-01|   -8.988049|   -9.580390|    1.233210|    0.043312|
|        5933|  2.6733e-01|   -8.988078|   -9.580477|    1.233205|    0.043313|
|        5934|  2.6733e-01|   -8.988108|   -9.580564|    1.233199|    0.043314|
|        5935|  2.6734e-01|   -8.988138|   -9.580651|    1.233194|    0.043315|
|        5936|  2.6734e-01|   -8.988168|   -9.580737|    1.233189|    0.043315|
|        5937|  2.6734e-01|   -8.988197|   -9.580823|    1.233183|    0.043316|
|        5938|  2.6734e-01|   -8.988227|   -9.580909|    1.233178|    0.043317|
|        5939|  2.6735e-01|   -8.988257|   -9.580995|    1.233173|    0.043317|
|        5940|  2.6735e-01|   -8.988287|   -9.581080|    1.233167|    0.043318|
|        5941|  2.6737e-01|   -8.988317|   -9.581165|    1.233162|    0.043319|
|        5942|  2.6738e-01|   -8.988346|   -9.581249|    1.233157|    0.043319|
|        5943|  2.6740e-01|   -8.988376|   -9.581333|    1.233151|    0.043320|
|        5944|  2.6740e-01|   -8.988406|   -9.581415|    1.233146|    0.043321|
|        5945|  2.6740e-01|   -8.988436|   -9.581496|    1.233141|    0.043322|
|        5946|  2.6740e-01|   -8.988465|   -9.581575|    1.233135|    0.043322|
|        5947|  2.6740e-01|   -8.988495|   -9.581653|    1.233130|    0.043323|
|        5948|  2.6740e-01|   -8.988525|   -9.581727|    1.233125|    0.043324|
|        5949|  2.6740e-01|   -8.988555|   -9.581799|    1.233119|    0.043324|
|        5950|  2.6740e-01|   -8.988584|   -9.581868|    1.233114|    0.043325|
|        5951|  2.6740e-01|   -8.988614|   -9.581933|    1.233108|    0.043326|
|        5952|  2.6741e-01|   -8.988644|   -9.581995|    1.233103|    0.043326|
|        5953|  2.6741e-01|   -8.988674|   -9.582054|    1.233098|    0.043327|
|        5954|  2.6741e-01|   -8.988704|   -9.582111|    1.233092|    0.043328|
|        5955|  2.6741e-01|   -8.988734|   -9.582167|    1.233087|    0.043329|
|        5956|  2.6741e-01|   -8.988764|   -9.582223|    1.233082|    0.043329|
|        5957|  2.6741e-01|   -8.988794|   -9.582279|    1.233076|    0.043330|
|        5958|  2.6741e-01|   -8.988825|   -9.582336|    1.233071|    0.043331|
|        5959|  2.6741e-01|   -8.988856|   -9.582393|    1.233066|    0.043331|
|        5960|  2.6741e-01|   -8.988887|   -9.582451|    1.233060|    0.043332|
|        5961|  2.6741e-01|   -8.988918|   -9.582511|    1.233055|    0.043333|
|        5962|  2.6742e-01|   -8.988950|   -9.582571|    1.233050|    0.043333|
|        5963|  2.6742e-01|   -8.988982|   -9.582633|    1.233044|    0.043334|
|        5964|  2.6742e-01|   -8.989014|   -9.582695|    1.233039|    0.043335|
|        5965|  2.6742e-01|   -8.989046|   -9.582758|    1.233034|    0.043336|
|        5966|  2.6743e-01|   -8.989079|   -9.582822|    1.233028|    0.043336|
|        5967|  2.6743e-01|   -8.989112|   -9.582887|    1.233023|    0.043337|
|        5968|  2.6743e-01|   -8.989146|   -9.582952|    1.233018|    0.043338|
|        5969|  2.6743e-01|   -8.989180|   -9.583019|    1.233012|    0.043338|
|        5970|  2.6743e-01|   -8.989215|   -9.583086|    1.233007|    0.043339|
|        5971|  2.6743e-01|   -8.989250|   -9.583154|    1.233002|    0.043340|
|        5972|  2.6743e-01|   -8.989286|   -9.583222|    1.232996|    0.043340|
|        5973|  2.6743e-01|   -8.989322|   -9.583292|    1.232991|    0.043341|
|        5974|  2.6743e-01|   -8.989359|   -9.583362|    1.232986|    0.043342|
|        5975|  2.6743e-01|   -8.989397|   -9.583433|    1.232980|    0.043342|
|        5976|  2.6743e-01|   -8.989436|   -9.583504|    1.232975|    0.043343|
|        5977|  2.6743e-01|   -8.989475|   -9.583577|    1.232970|    0.043344|
|        5978|  2.6743e-01|   -8.989515|   -9.583650|    1.232964|    0.043345|
|        5979|  2.6744e-01|   -8.989555|   -9.583723|    1.232959|    0.043345|
|        5980|  2.6744e-01|   -8.989597|   -9.583797|    1.232954|    0.043346|
|        5981|  2.6744e-01|   -8.989639|   -9.583872|    1.232948|    0.043347|
|        5982|  2.6744e-01|   -8.989683|   -9.583947|    1.232943|    0.043347|
|        5983|  2.6744e-01|   -8.989727|   -9.584022|    1.232938|    0.043348|
|        5984|  2.6744e-01|   -8.989772|   -9.584097|    1.232932|    0.043349|
|        5985|  2.6744e-01|   -8.989818|   -9.584172|    1.232927|    0.043349|
|        5986|  2.6744e-01|   -8.989864|   -9.584246|    1.232922|    0.043350|
|        5987|  2.6744e-01|   -8.989912|   -9.584318|    1.232916|    0.043351|
|        5988|  2.6744e-01|   -8.989961|   -9.584388|    1.232911|    0.043352|
|        5989|  2.6745e-01|   -8.990011|   -9.584456|    1.232906|    0.043352|
|        5990|  2.6744e-01|   -8.990062|   -9.584520|    1.232900|    0.043353|
|        5991|  2.6744e-01|   -8.990113|   -9.584583|    1.232895|    0.043354|
|        5992|  2.6744e-01|   -8.990166|   -9.584643|    1.232890|    0.043354|
|        5993|  2.6744e-01|   -8.990220|   -9.584702|    1.232884|    0.043355|
|        5994|  2.6745e-01|   -8.990275|   -9.584761|    1.232879|    0.043356|
|        5995|  2.6745e-01|   -8.990331|   -9.584821|    1.232874|    0.043356|
|        5996|  2.6745e-01|   -8.990389|   -9.584881|    1.232868|    0.043357|
|        5997|  2.6745e-01|   -8.990447|   -9.584943|    1.232863|    0.043358|
|        5998|  2.6745e-01|   -8.990506|   -9.585006|    1.232858|    0.043359|
|        5999|  2.6746e-01|   -8.990566|   -9.585072|    1.232852|    0.043359|
|        6000|  2.6745e-01|   -8.990628|   -9.585138|    1.232847|    0.043360|
+-----------------------------------------------------------------------+
|        File Writing Summary       |              Filename             |
+-----------------------------------------------------------------------+
|SU2 binary restart                 |restart_flow.dat                   |
|Paraview                           |flow.vtu                           |
|Paraview surface                   |surface_flow.vtu                   |
+-----------------------------------------------------------------------+
+-----------------------------------------------------------------------------+
|  Inner_Iter|   Time(sec)|      rms[P]|     rms[nu]|          CL|          CD|
+-----------------------------------------------------------------------------+
|        6001|  2.6746e-01|   -8.990690|   -9.585207|    1.232842|    0.043361|
|        6002|  2.6746e-01|   -8.990753|   -9.585277|    1.232837|    0.043361|
|        6003|  2.6747e-01|   -8.990817|   -9.585349|    1.232831|    0.043362|
|        6004|  2.6747e-01|   -8.990883|   -9.585421|    1.232826|    0.043363|
|        6005|  2.6747e-01|   -8.990949|   -9.585496|    1.232821|    0.043363|
|        6006|  2.6747e-01|   -8.991016|   -9.585572|    1.232815|    0.043364|
|        6007|  2.6747e-01|   -8.991084|   -9.585649|    1.232810|    0.043365|
|        6008|  2.6747e-01|   -8.991152|   -9.585727|    1.232805|    0.043365|
|        6009|  2.6747e-01|   -8.991222|   -9.585806|    1.232799|    0.043366|
|        6010|  2.6748e-01|   -8.991292|   -9.585886|    1.232794|    0.043367|
|        6011|  2.6748e-01|   -8.991363|   -9.585967|    1.232789|    0.043368|
|        6012|  2.6748e-01|   -8.991435|   -9.586050|    1.232783|    0.043368|
|        6013|  2.6748e-01|   -8.991507|   -9.586133|    1.232778|    0.043369|
|        6014|  2.6748e-01|   -8.991580|   -9.586218|    1.232773|    0.043370|
|        6015|  2.6748e-01|   -8.991654|   -9.586304|    1.232767|    0.043370|
|        6016|  2.6748e-01|   -8.991729|   -9.586390|    1.232762|    0.043371|
|        6017|  2.6748e-01|   -8.991804|   -9.586478|    1.232757|    0.043372|
|        6018|  2.6749e-01|   -8.991879|   -9.586567|    1.232752|    0.043372|
|        6019|  2.6749e-01|   -8.991956|   -9.586658|    1.232746|    0.043373|
|        6020|  2.6749e-01|   -8.992032|   -9.586749|    1.232741|    0.043374|
|        6021|  2.6749e-01|   -8.992110|   -9.586842|    1.232736|    0.043375|
|        6022|  2.6749e-01|   -8.992187|   -9.586937|    1.232730|    0.043375|
|        6023|  2.6749e-01|   -8.992266|   -9.587032|    1.232725|    0.043376|
|        6024|  2.6749e-01|   -8.992345|   -9.587128|    1.232720|    0.043377|
|        6025|  2.6749e-01|   -8.992424|   -9.587225|    1.232714|    0.043377|
|        6026|  2.6749e-01|   -8.992504|   -9.587324|    1.232709|    0.043378|
|        6027|  2.6749e-01|   -8.992584|   -9.587424|    1.232704|    0.043379|
|        6028|  2.6749e-01|   -8.992665|   -9.587525|    1.232699|    0.043379|
|        6029|  2.6749e-01|   -8.992746|   -9.587628|    1.232693|    0.043380|
|        6030|  2.6749e-01|   -8.992828|   -9.587733|    1.232688|    0.043381|
|        6031|  2.6748e-01|   -8.992910|   -9.587839|    1.232683|    0.043382|
|        6032|  2.6748e-01|   -8.992993|   -9.587946|    1.232677|    0.043382|
|        6033|  2.6748e-01|   -8.993076|   -9.588055|    1.232672|    0.043383|
|        6034|  2.6748e-01|   -8.993160|   -9.588166|    1.232667|    0.043384|
|        6035|  2.6748e-01|   -8.993244|   -9.588278|    1.232662|    0.043384|
|        6036|  2.6749e-01|   -8.993328|   -9.588390|    1.232656|    0.043385|
|        6037|  2.6749e-01|   -8.993414|   -9.588503|    1.232651|    0.043386|
|        6038|  2.6748e-01|   -8.993499|   -9.588617|    1.232646|    0.043386|
|        6039|  2.6748e-01|   -8.993585|   -9.588732|    1.232640|    0.043387|
|        6040|  2.6749e-01|   -8.993672|   -9.588848|    1.232635|    0.043388|
|        6041|  2.6749e-01|   -8.993759|   -9.588965|    1.232630|    0.043389|
|        6042|  2.6748e-01|   -8.993847|   -9.589081|    1.232625|    0.043389|
|        6043|  2.6748e-01|   -8.993935|   -9.589197|    1.232619|    0.043390|
|        6044|  2.6748e-01|   -8.994024|   -9.589311|    1.232614|    0.043391|
|        6045|  2.6748e-01|   -8.994113|   -9.589425|    1.232609|    0.043391|
|        6046|  2.6748e-01|   -8.994203|   -9.589536|    1.232603|    0.043392|
|        6047|  2.6748e-01|   -8.994294|   -9.589646|    1.232598|    0.043393|
|        6048|  2.6748e-01|   -8.994385|   -9.589754|    1.232593|    0.043393|
|        6049|  2.6748e-01|   -8.994477|   -9.589861|    1.232588|    0.043394|
|        6050|  2.6748e-01|   -8.994570|   -9.589967|    1.232582|    0.043395|
|        6051|  2.6748e-01|   -8.994663|   -9.590073|    1.232577|    0.043396|
|        6052|  2.6748e-01|   -8.994757|   -9.590178|    1.232572|    0.043396|
|        6053|  2.6748e-01|   -8.994852|   -9.590283|    1.232566|    0.043397|
|        6054|  2.6748e-01|   -8.994948|   -9.590389|    1.232561|    0.043398|
|        6055|  2.6749e-01|   -8.995044|   -9.590495|    1.232556|    0.043398|
|        6056|  2.6750e-01|   -8.995141|   -9.590601|    1.232551|    0.043399|
|        6057|  2.6751e-01|   -8.995239|   -9.590707|    1.232545|    0.043400|
|        6058|  2.6752e-01|   -8.995337|   -9.590814|    1.232540|    0.043400|
|        6059|  2.6753e-01|   -8.995436|   -9.590921|    1.232535|    0.043401|
|        6060|  2.6753e-01|   -8.995536|   -9.591029|    1.232530|    0.043402|
|        6061|  2.6753e-01|   -8.995636|   -9.591137|    1.232524|    0.043403|
|        6062|  2.6753e-01|   -8.995736|   -9.591245|    1.232519|    0.043403|
|        6063|  2.6753e-01|   -8.995837|   -9.591354|    1.232514|    0.043404|
|        6064|  2.6753e-01|   -8.995939|   -9.591464|    1.232509|    0.043405|
|        6065|  2.6754e-01|   -8.996041|   -9.591574|    1.232503|    0.043405|
|        6066|  2.6754e-01|   -8.996143|   -9.591684|    1.232498|    0.043406|
|        6067|  2.6755e-01|   -8.996246|   -9.591795|    1.232493|    0.043407|
|        6068|  2.6755e-01|   -8.996349|   -9.591906|    1.232488|    0.043407|
|        6069|  2.6756e-01|   -8.996451|   -9.592018|    1.232482|    0.043408|
|        6070|  2.6757e-01|   -8.996554|   -9.592130|    1.232477|    0.043409|
|        6071|  2.6757e-01|   -8.996657|   -9.592243|    1.232472|    0.043409|
|        6072|  2.6759e-01|   -8.996760|   -9.592356|    1.232467|    0.043410|
|        6073|  2.6759e-01|   -8.996863|   -9.592470|    1.232461|    0.043411|
|        6074|  2.6760e-01|   -8.996966|   -9.592584|    1.232456|    0.043412|
|        6075|  2.6761e-01|   -8.997068|   -9.592699|    1.232451|    0.043412|
|        6076|  2.6761e-01|   -8.997170|   -9.592814|    1.232446|    0.043413|
|        6077|  2.6761e-01|   -8.997272|   -9.592930|    1.232440|    0.043414|
|        6078|  2.6762e-01|   -8.997374|   -9.593046|    1.232435|    0.043414|
|        6079|  2.6762e-01|   -8.997475|   -9.593163|    1.232430|    0.043415|
|        6080|  2.6762e-01|   -8.997575|   -9.593281|    1.232425|    0.043416|
|        6081|  2.6762e-01|   -8.997675|   -9.593399|    1.232419|    0.043416|
|        6082|  2.6762e-01|   -8.997775|   -9.593517|    1.232414|    0.043417|
|        6083|  2.6762e-01|   -8.997874|   -9.593637|    1.232409|    0.043418|
|        6084|  2.6763e-01|   -8.997973|   -9.593757|    1.232404|    0.043419|
|        6085|  2.6763e-01|   -8.998071|   -9.593877|    1.232399|    0.043419|
|        6086|  2.6763e-01|   -8.998169|   -9.593999|    1.232393|    0.043420|
|        6087|  2.6763e-01|   -8.998266|   -9.594121|    1.232388|    0.043421|
|        6088|  2.6763e-01|   -8.998363|   -9.594244|    1.232383|    0.043421|
|        6089|  2.6763e-01|   -8.998460|   -9.594368|    1.232378|    0.043422|
|        6090|  2.6763e-01|   -8.998556|   -9.594493|    1.232372|    0.043423|
|        6091|  2.6763e-01|   -8.998652|   -9.594619|    1.232367|    0.043423|
|        6092|  2.6762e-01|   -8.998747|   -9.594745|    1.232362|    0.043424|
|        6093|  2.6762e-01|   -8.998843|   -9.594874|    1.232357|    0.043425|
|        6094|  2.6762e-01|   -8.998938|   -9.595003|    1.232352|    0.043426|
|        6095|  2.6762e-01|   -8.999034|   -9.595135|    1.232346|    0.043426|
|        6096|  2.6762e-01|   -8.999129|   -9.595268|    1.232341|    0.043427|
|        6097|  2.6762e-01|   -8.999224|   -9.595404|    1.232336|    0.043428|
|        6098|  2.6762e-01|   -8.999319|   -9.595543|    1.232331|    0.043428|
|        6099|  2.6762e-01|   -8.999415|   -9.595681|    1.232325|    0.043429|
|        6100|  2.6762e-01|   -8.999510|   -9.595818|    1.232320|    0.043430|
|        6101|  2.6763e-01|   -8.999606|   -9.595950|    1.232315|    0.043430|
|        6102|  2.6763e-01|   -8.999702|   -9.596079|    1.232310|    0.043431|
|        6103|  2.6763e-01|   -8.999798|   -9.596206|    1.232305|    0.043432|
|        6104|  2.6762e-01|   -8.999894|   -9.596334|    1.232299|    0.043432|
|        6105|  2.6762e-01|   -8.999991|   -9.596461|    1.232294|    0.043433|
|        6106|  2.6762e-01|   -9.000087|   -9.596588|    1.232289|    0.043434|

----------------------------- Solver Exit -------------------------------
All convergence criteria satisfied.
+-----------------------------------------------------------------------+
|      Convergence Field     |     Value    |   Criterion  |  Converged |
+-----------------------------------------------------------------------+
|                      rms[P]|      -9.00009|          < -9|         Yes|
+-----------------------------------------------------------------------+
-------------------------------------------------------------------------
+-----------------------------------------------------------------------+
|        File Writing Summary       |              Filename             |
+-----------------------------------------------------------------------+
|SU2 binary restart                 |restart_flow.dat                   |
|Paraview                           |flow.vtu                           |
|Paraview surface                   |surface_flow.vtu                   |
+-----------------------------------------------------------------------+

--------------------------- Finalizing Solver ---------------------------
Deleted CNumerics container.
Deleted CIntegration container.
Deleted CSolver container.
Deleted CIteration container.
Deleted CInterface container.
Deleted CGeometry container.
Deleted CFreeFormDefBox class.
Deleted CSurfaceMovement class.
Deleted CVolumetricMovement class.
Deleted CConfig container.
Deleted nInst container.
Deleted COutput class.
-------------------------------------------------------------------------

------------------------- Exit Success (SU2_CFD) ------------------------

